* SPICE3 file created from 20bitCounter.ext - technology: sky130A
V1 VDD GND 1.8
V2 Vclk GND pulse(0V 1.8V clk_offset clk_risetime clk_falltime {clk_period/2} clk_period 0deg) 
V4 Vreset GND pwl(0.0us 1.8V, 0.090us 1.8V, 0.091us 0.0V, 0.100us 0.0V, 0.101us 1.8V)

.param clk_period=1us clk_offset={clk_period/2} clk_risetime=5ns clk_falltime={clk_risetime}
.func data_time(x) {clk_offset/2 + x*(clk_period/2)}

.tran 1us {32*clk_period}
.save Vclk Vreset 
.save sky130_fd_sc_hd__dfrbp_1_0[0]/Q sky130_fd_sc_hd__dfrbp_1_0[1]/Q sky130_fd_sc_hd__dfrbp_1_0[2]/Q sky130_fd_sc_hd__dfrbp_1_0[3]/Q
.save sky130_fd_sc_hd__dfrbp_1_0[4]/Q sky130_fd_sc_hd__dfrbp_1_0[5]/Q sky130_fd_sc_hd__dfrbp_1_0[6]/Q sky130_fd_sc_hd__dfrbp_1_0[7]/Q
.save sky130_fd_sc_hd__dfrbp_1_0[8]/Q sky130_fd_sc_hd__dfrbp_1_0[9]/Q sky130_fd_sc_hd__dfrbp_1_0[10]/Q sky130_fd_sc_hd__dfrbp_1_0[11]/Q
.save sky130_fd_sc_hd__dfrbp_1_0[12]/Q sky130_fd_sc_hd__dfrbp_1_0[13]/Q sky130_fd_sc_hd__dfrbp_1_0[14]/Q sky130_fd_sc_hd__dfrbp_1_[15]/Q
.save sky130_fd_sc_hd__dfrbp_1_0[16]/Q sky130_fd_sc_hd__dfrbp_1_0[17]/Q sky130_fd_sc_hd__dfrbp_1_0[18]/Q sky130_fd_sc_hd__dfrbp_1_0[19]/Q
.lib ~/open_pdks/sky130/sky130A/libs.tech/ngspice/sky130.lib.spice tt

.subckt sky130_fd_sc_hd__dfrbp_1 CLK D Q Q_N RESET_B VNB VPB
X0 a_805_47# a_761_289# a_639_47# VNB sky130_fd_pr__nfet_01v8 ad=0p pd=0u as=0p ps=0u w=420000u l=150000u
X1 VPB a_1283_21# a_1847_47# VPB sky130_fd_pr__pfet_01v8_hvt ad=0p pd=0u as=0p ps=0u w=640000u l=150000u
X2 a_1108_47# a_193_47# a_761_289# VNB sky130_fd_pr__nfet_01v8 ad=0p pd=0u as=0p ps=0u w=360000u l=150000u
X3 a_1283_21# a_1108_47# a_1462_47# VNB sky130_fd_pr__nfet_01v8 ad=0p pd=0u as=0p ps=0u w=420000u l=150000u
X4 a_651_413# a_27_47# a_543_47# VPB sky130_fd_pr__pfet_01v8_hvt ad=0p pd=0u as=0p ps=0u w=420000u l=150000u
X5 VNB RESET_B a_805_47# VNB sky130_fd_pr__nfet_01v8 ad=0p pd=0u as=0p ps=0u w=420000u l=150000u
X6 VPB CLK a_27_47# VPB sky130_fd_pr__pfet_01v8_hvt ad=0p pd=0u as=0p ps=0u w=640000u l=150000u
X7 Q_N a_1847_47# VNB VNB sky130_fd_pr__nfet_01v8 ad=0p pd=0u as=0p ps=0u w=650000u l=150000u
X8 a_448_47# D VPB VPB sky130_fd_pr__pfet_01v8_hvt ad=0p pd=0u as=0p ps=0u w=420000u l=150000u
X9 VNB a_1283_21# a_1847_47# VNB sky130_fd_pr__nfet_01v8 ad=0p pd=0u as=0p ps=0u w=420000u l=150000u
X10 a_761_289# a_543_47# VNB VNB sky130_fd_pr__nfet_01v8 ad=0p pd=0u as=0p ps=0u w=640000u l=150000u
X11 Q a_1283_21# VNB VNB sky130_fd_pr__nfet_01v8 ad=0p pd=0u as=0p ps=0u w=650000u l=150000u
X12 a_193_47# a_27_47# VNB VNB sky130_fd_pr__nfet_01v8 ad=0p pd=0u as=0p ps=0u w=420000u l=150000u
X13 a_1108_47# a_27_47# a_761_289# VPB sky130_fd_pr__pfet_01v8_hvt ad=0p pd=0u as=0p ps=0u w=420000u l=150000u
X14 a_543_47# a_27_47# a_448_47# VNB sky130_fd_pr__nfet_01v8 ad=0p pd=0u as=0p ps=0u w=360000u l=150000u
X15 a_1462_47# RESET_B VNB VNB sky130_fd_pr__nfet_01v8 ad=0p pd=0u as=0p ps=0u w=420000u l=150000u
X16 a_543_47# a_193_47# a_448_47# VPB sky130_fd_pr__pfet_01v8_hvt ad=0p pd=0u as=0p ps=0u w=420000u l=150000u
X17 a_448_47# D VNB VNB sky130_fd_pr__nfet_01v8 ad=0p pd=0u as=0p ps=0u w=420000u l=150000u
X18 VPB a_1283_21# a_1270_413# VPB sky130_fd_pr__pfet_01v8_hvt ad=0p pd=0u as=0p ps=0u w=420000u l=150000u
X19 VPB a_1108_47# a_1283_21# VPB sky130_fd_pr__pfet_01v8_hvt ad=0p pd=0u as=0p ps=0u w=420000u l=150000u
X20 a_193_47# a_27_47# VPB VPB sky130_fd_pr__pfet_01v8_hvt ad=0p pd=0u as=0p ps=0u w=640000u l=150000u
X21 a_1270_413# a_193_47# a_1108_47# VPB sky130_fd_pr__pfet_01v8_hvt ad=0p pd=0u as=0p ps=0u w=420000u l=150000u
X22 a_1283_21# RESET_B VPB VPB sky130_fd_pr__pfet_01v8_hvt ad=0p pd=0u as=0p ps=0u w=420000u l=150000u
X23 VPB a_761_289# a_651_413# VPB sky130_fd_pr__pfet_01v8_hvt ad=0p pd=0u as=0p ps=0u w=420000u l=150000u
X24 a_639_47# a_193_47# a_543_47# VNB sky130_fd_pr__nfet_01v8 ad=0p pd=0u as=0p ps=0u w=360000u l=150000u
X25 VNB a_1283_21# a_1217_47# VNB sky130_fd_pr__nfet_01v8 ad=0p pd=0u as=0p ps=0u w=420000u l=150000u
X26 Q_N a_1847_47# VPB VPB sky130_fd_pr__pfet_01v8_hvt ad=0p pd=0u as=0p ps=0u w=1e+06u l=150000u
X27 VNB CLK a_27_47# VNB sky130_fd_pr__nfet_01v8 ad=0p pd=0u as=0p ps=0u w=420000u l=150000u
X28 a_761_289# a_543_47# VPB VPB sky130_fd_pr__pfet_01v8_hvt ad=0p pd=0u as=0p ps=0u w=840000u l=150000u
X29 a_651_413# RESET_B VPB VPB sky130_fd_pr__pfet_01v8_hvt ad=0p pd=0u as=0p ps=0u w=420000u l=150000u
X30 Q a_1283_21# VPB VPB sky130_fd_pr__pfet_01v8_hvt ad=0p pd=0u as=0p ps=0u w=1e+06u l=150000u
X31 a_1217_47# a_27_47# a_1108_47# VNB sky130_fd_pr__nfet_01v8 ad=0p pd=0u as=0p ps=0u w=360000u l=150000u
.ends


C0 Vreset sky130_fd_sc_hd__dfrbp_1_0[8]/Q 0.11fF
C1 Vreset sky130_fd_sc_hd__dfrbp_1_0[16]/D 1.55fF
C2 sky130_fd_sc_hd__dfrbp_1_0[6]/Q sky130_fd_sc_hd__dfrbp_1_0[6]/D 0.12fF
C3 Vreset sky130_fd_sc_hd__dfrbp_1_0[0]/Q 0.11fF
C4 sky130_fd_sc_hd__dfrbp_1_0[13]/Q sky130_fd_sc_hd__dfrbp_1_0[13]/D 0.12fF
C5 Vreset sky130_fd_sc_hd__dfrbp_1_0[4]/D 1.45fF
C6 Vreset sky130_fd_sc_hd__dfrbp_1_0[11]/D 1.68fF
C7 sky130_fd_sc_hd__dfrbp_1_0[8]/D sky130_fd_sc_hd__dfrbp_1_0[9]/D 0.08fF
C8 sky130_fd_sc_hd__dfrbp_1_0[7]/Q sky130_fd_sc_hd__dfrbp_1_0[7]/D 0.12fF
C9 Vreset sky130_fd_sc_hd__dfrbp_1_0[15]/Q 0.11fF
C10 sky130_fd_sc_hd__dfrbp_1_0[14]/D sky130_fd_sc_hd__dfrbp_1_0[15]/D 0.08fF
C11 sky130_fd_sc_hd__dfrbp_1_0[1]/D Vreset 1.15fF
C12 sky130_fd_sc_hd__dfrbp_1_0[1]/Q sky130_fd_sc_hd__dfrbp_1_0[1]/D 0.12fF
C13 sky130_fd_sc_hd__dfrbp_1_0[1]/Q Vreset 0.11fF
C14 sky130_fd_sc_hd__dfrbp_1_0[2]/Q sky130_fd_sc_hd__dfrbp_1_0[2]/D 0.12fF
C15 Vreset sky130_fd_sc_hd__dfrbp_1_0[3]/Q 0.11fF
C16 Vreset sky130_fd_sc_hd__dfrbp_1_0[10]/Q 0.11fF
C17 sky130_fd_sc_hd__dfrbp_1_0[8]/Q sky130_fd_sc_hd__dfrbp_1_0[8]/D 0.12fF
C18 Vreset sky130_fd_sc_hd__dfrbp_1_0[18]/D 1.55fF
C19 sky130_fd_sc_hd__dfrbp_1_0[14]/Q sky130_fd_sc_hd__dfrbp_1_0[14]/D 0.12fF
C20 sky130_fd_sc_hd__dfrbp_1_0[2]/D sky130_fd_sc_hd__dfrbp_1_0[3]/D 0.08fF
C21 Vreset sky130_fd_sc_hd__dfrbp_1_0[6]/D 1.55fF
C22 sky130_fd_sc_hd__dfrbp_1_0[0]/Q sky130_fd_sc_hd__dfrbp_1_0[0]/D 0.12fF
C23 Vreset sky130_fd_sc_hd__dfrbp_1_0[13]/D 1.51fF
C24 sky130_fd_sc_hd__dfrbp_1_0[9]/D sky130_fd_sc_hd__dfrbp_1_0[10]/D 0.08fF
C25 Vreset sky130_fd_sc_hd__dfrbp_1_0[19]/D 1.30fF
C26 sky130_fd_sc_hd__dfrbp_1_0[15]/D sky130_fd_sc_hd__dfrbp_1_0[16]/D 0.08fF
C27 Vreset sky130_fd_sc_hd__dfrbp_1_0[8]/D 1.55fF
C28 sky130_fd_sc_hd__dfrbp_1_0[18]/D sky130_fd_sc_hd__dfrbp_1_0[19]/D 0.08fF
C29 Vreset sky130_fd_sc_hd__dfrbp_1_0[5]/Q 0.11fF
C30 Vreset sky130_fd_sc_hd__dfrbp_1_0[12]/Q 0.11fF
C31 sky130_fd_sc_hd__dfrbp_1_0[9]/Q sky130_fd_sc_hd__dfrbp_1_0[9]/D 0.12fF
C32 sky130_fd_sc_hd__dfrbp_1_0[1]/D sky130_fd_sc_hd__dfrbp_1_0[0]/D 0.08fF
C33 Vreset sky130_fd_sc_hd__dfrbp_1_0[0]/D 1.04fF
C34 sky130_fd_sc_hd__dfrbp_1_0[15]/Q sky130_fd_sc_hd__dfrbp_1_0[15]/D 0.12fF
C35 sky130_fd_sc_hd__dfrbp_1_0[3]/D sky130_fd_sc_hd__dfrbp_1_0[4]/D 0.08fF
C36 sky130_fd_sc_hd__dfrbp_1_0[2]/Q Vreset 0.11fF
C37 Vreset sky130_fd_sc_hd__dfrbp_1_0[15]/D 1.68fF
C38 sky130_fd_sc_hd__dfrbp_1_0[10]/D sky130_fd_sc_hd__dfrbp_1_0[11]/D 0.08fF
C39 Vreset sky130_fd_sc_hd__dfrbp_1_0[19]/Q 0.02fF
C40 sky130_fd_sc_hd__dfrbp_1_0[16]/D sky130_fd_sc_hd__dfrbp_1_0[17]/D 0.08fF
C41 Vreset sky130_fd_sc_hd__dfrbp_1_0[3]/D 1.68fF
C42 Vreset sky130_fd_sc_hd__dfrbp_1_0[10]/D 1.55fF
C43 sky130_fd_sc_hd__dfrbp_1_0[3]/Q sky130_fd_sc_hd__dfrbp_1_0[3]/D 0.12fF
C44 Vreset sky130_fd_sc_hd__dfrbp_1_0[7]/Q 0.11fF
C45 Vclk sky130_fd_sc_hd__dfrbp_1_0[0]/D 0.04fF
C46 Vreset sky130_fd_sc_hd__dfrbp_1_0[14]/Q 0.11fF
C47 sky130_fd_sc_hd__dfrbp_1_0[10]/Q sky130_fd_sc_hd__dfrbp_1_0[10]/D 0.12fF
C48 sky130_fd_sc_hd__dfrbp_1_0[16]/Q sky130_fd_sc_hd__dfrbp_1_0[16]/D 0.12fF
C49 sky130_fd_sc_hd__dfrbp_1_0[4]/D sky130_fd_sc_hd__dfrbp_1_0[5]/D 0.08fF
C50 Vreset sky130_fd_sc_hd__dfrbp_1_0[9]/Q 0.11fF
C51 Vreset sky130_fd_sc_hd__dfrbp_1_0[17]/D 1.68fF
C52 sky130_fd_sc_hd__dfrbp_1_0[11]/D sky130_fd_sc_hd__dfrbp_1_0[12]/D 0.08fF
C53 sky130_fd_sc_hd__dfrbp_1_0[17]/D sky130_fd_sc_hd__dfrbp_1_0[18]/D 0.08fF
C54 Vreset sky130_fd_sc_hd__dfrbp_1_0[5]/D 1.68fF
C55 Vreset sky130_fd_sc_hd__dfrbp_1_0[12]/D 1.55fF
C56 sky130_fd_sc_hd__dfrbp_1_0[4]/Q sky130_fd_sc_hd__dfrbp_1_0[4]/D 0.12fF
C57 Vreset sky130_fd_sc_hd__dfrbp_1_0[16]/Q 0.11fF
C58 sky130_fd_sc_hd__dfrbp_1_0[11]/Q sky130_fd_sc_hd__dfrbp_1_0[11]/D 0.12fF
C59 Vreset sky130_fd_sc_hd__dfrbp_1_0[7]/D 1.68fF
C60 sky130_fd_sc_hd__dfrbp_1_0[5]/D sky130_fd_sc_hd__dfrbp_1_0[6]/D 0.08fF
C61 Vreset sky130_fd_sc_hd__dfrbp_1_0[4]/Q 0.11fF
C62 Vreset sky130_fd_sc_hd__dfrbp_1_0[11]/Q 0.11fF
C63 sky130_fd_sc_hd__dfrbp_1_0[12]/D sky130_fd_sc_hd__dfrbp_1_0[13]/D 0.08fF
C64 sky130_fd_sc_hd__dfrbp_1_0[6]/D sky130_fd_sc_hd__dfrbp_1_0[7]/D 0.08fF
C65 Vreset sky130_fd_sc_hd__dfrbp_1_0[14]/D 1.55fF
C66 sky130_fd_sc_hd__dfrbp_1_0[5]/Q sky130_fd_sc_hd__dfrbp_1_0[5]/D 0.12fF
C67 Vreset sky130_fd_sc_hd__dfrbp_1_0[18]/Q 0.11fF
C68 sky130_fd_sc_hd__dfrbp_1_0[12]/Q sky130_fd_sc_hd__dfrbp_1_0[12]/D 0.12fF
C69 sky130_fd_sc_hd__dfrbp_1_0[1]/D sky130_fd_sc_hd__dfrbp_1_0[2]/D 0.08fF
C70 Vreset sky130_fd_sc_hd__dfrbp_1_0[2]/D 1.45fF
C71 Vreset sky130_fd_sc_hd__dfrbp_1_0[9]/D 1.68fF
C72 sky130_fd_sc_hd__dfrbp_1_0[7]/D sky130_fd_sc_hd__dfrbp_1_0[8]/D 0.08fF
C73 sky130_fd_sc_hd__dfrbp_1_0[18]/Q sky130_fd_sc_hd__dfrbp_1_0[18]/D 0.12fF
C74 Vreset sky130_fd_sc_hd__dfrbp_1_0[6]/Q 0.11fF
C75 Vreset sky130_fd_sc_hd__dfrbp_1_0[13]/Q 0.11fF
C76 sky130_fd_sc_hd__dfrbp_1_0[13]/D sky130_fd_sc_hd__dfrbp_1_0[14]/D 0.08fF
R0 sky130_fd_sc_hd__dfrbp_1_0[0]/a_761_289.n1 sky130_fd_sc_hd__dfrbp_1_0[0]/a_761_289.t4 350.253
R1 sky130_fd_sc_hd__dfrbp_1_0[0]/a_761_289.n1 sky130_fd_sc_hd__dfrbp_1_0[0]/a_761_289.t5 189.586
R2 sky130_fd_sc_hd__dfrbp_1_0[0]/a_761_289.n2 sky130_fd_sc_hd__dfrbp_1_0[0]/a_761_289.n1 97.205
R3 sky130_fd_sc_hd__dfrbp_1_0[0]/a_761_289.n3 sky130_fd_sc_hd__dfrbp_1_0[0]/a_761_289.t2 89.119
R4 sky130_fd_sc_hd__dfrbp_1_0[0]/a_761_289.n2 sky130_fd_sc_hd__dfrbp_1_0[0]/a_761_289.n0 79.305
R5 sky130_fd_sc_hd__dfrbp_1_0[0]/a_761_289.n3 sky130_fd_sc_hd__dfrbp_1_0[0]/a_761_289.n2 66.705
R6 sky130_fd_sc_hd__dfrbp_1_0[0]/a_761_289.n0 sky130_fd_sc_hd__dfrbp_1_0[0]/a_761_289.t3 63.333
R7 sky130_fd_sc_hd__dfrbp_1_0[0]/a_761_289.t0 sky130_fd_sc_hd__dfrbp_1_0[0]/a_761_289.n3 41.041
R8 sky130_fd_sc_hd__dfrbp_1_0[0]/a_761_289.n0 sky130_fd_sc_hd__dfrbp_1_0[0]/a_761_289.t1 31.979
R9 sky130_fd_sc_hd__dfrbp_1_0[0]/a_639_47.t1 sky130_fd_sc_hd__dfrbp_1_0[0]/a_639_47.t0 198.571
R10 sky130_fd_sc_hd__dfrbp_1_0[0]/a_805_47.t0 sky130_fd_sc_hd__dfrbp_1_0[0]/a_805_47.t1 60
R11 GND.n75 GND.t58 126.237
R12 GND.n154 GND.t110 126.237
R13 GND.n233 GND.t99 126.237
R14 GND.n312 GND.t105 126.237
R15 GND.n391 GND.t111 126.237
R16 GND.n470 GND.t45 126.237
R17 GND.n549 GND.t80 126.237
R18 GND.n628 GND.t181 126.237
R19 GND.n1519 GND.t17 126.237
R20 GND.n1440 GND.t78 126.237
R21 GND.n1361 GND.t124 126.237
R22 GND.n1282 GND.t75 126.237
R23 GND.n1203 GND.t66 126.237
R24 GND.n1124 GND.t51 126.237
R25 GND.n1045 GND.t1 126.237
R26 GND.n966 GND.t4 126.237
R27 GND.n887 GND.t197 126.237
R28 GND.n808 GND.t49 126.237
R29 GND.n729 GND.t40 126.237
R30 GND.n650 GND.t14 126.237
R31 GND.n38 GND.t141 100
R32 GND.n117 GND.t143 100
R33 GND.n196 GND.t145 100
R34 GND.n275 GND.t147 100
R35 GND.n354 GND.t149 100
R36 GND.n433 GND.t151 100
R37 GND.n512 GND.t153 100
R38 GND.n591 GND.t155 100
R39 GND.n1556 GND.t157 100
R40 GND.n1476 GND.t159 100
R41 GND.n1397 GND.t161 100
R42 GND.n1318 GND.t163 100
R43 GND.n1239 GND.t165 100
R44 GND.n1160 GND.t167 100
R45 GND.n1081 GND.t169 100
R46 GND.n1002 GND.t171 100
R47 GND.n923 GND.t173 100
R48 GND.n844 GND.t175 100
R49 GND.n765 GND.t177 100
R50 GND.n686 GND.t179 100
R51 GND.n52 GND.t142 72.857
R52 GND.n131 GND.t144 72.857
R53 GND.n210 GND.t146 72.857
R54 GND.n289 GND.t148 72.857
R55 GND.n368 GND.t150 72.857
R56 GND.n447 GND.t152 72.857
R57 GND.n526 GND.t154 72.857
R58 GND.n605 GND.t156 72.857
R59 GND.n1541 GND.t158 72.857
R60 GND.n1462 GND.t160 72.857
R61 GND.n1383 GND.t162 72.857
R62 GND.n1304 GND.t164 72.857
R63 GND.n1225 GND.t166 72.857
R64 GND.n1146 GND.t168 72.857
R65 GND.n1067 GND.t170 72.857
R66 GND.n988 GND.t172 72.857
R67 GND.n909 GND.t174 72.857
R68 GND.n830 GND.t176 72.857
R69 GND.n751 GND.t178 72.857
R70 GND.n672 GND.t180 72.857
R71 GND.n38 GND.t36 70
R72 GND.n117 GND.t123 70
R73 GND.n196 GND.t187 70
R74 GND.n275 GND.t95 70
R75 GND.n354 GND.t199 70
R76 GND.n433 GND.t112 70
R77 GND.n512 GND.t104 70
R78 GND.n591 GND.t72 70
R79 GND.n1556 GND.t82 70
R80 GND.n1476 GND.t41 70
R81 GND.n1397 GND.t115 70
R82 GND.n1318 GND.t35 70
R83 GND.n1239 GND.t198 70
R84 GND.n1160 GND.t97 70
R85 GND.n1081 GND.t34 70
R86 GND.n1002 GND.t20 70
R87 GND.n923 GND.t189 70
R88 GND.n844 GND.t39 70
R89 GND.n765 GND.t73 70
R90 GND.n686 GND.t46 70
R91 GND.n25 GND.t96 67.587
R92 GND.n104 GND.t107 67.587
R93 GND.n183 GND.t121 67.587
R94 GND.n262 GND.t84 67.587
R95 GND.n341 GND.t195 67.587
R96 GND.n420 GND.t85 67.587
R97 GND.n499 GND.t184 67.587
R98 GND.n578 GND.t23 67.587
R99 GND.n1490 GND.t10 67.587
R100 GND.n1411 GND.t83 67.587
R101 GND.n1332 GND.t136 67.587
R102 GND.n1253 GND.t5 67.587
R103 GND.n1174 GND.t7 67.587
R104 GND.n1095 GND.t16 67.587
R105 GND.n1016 GND.t25 67.587
R106 GND.n937 GND.t185 67.587
R107 GND.n858 GND.t43 67.587
R108 GND.n779 GND.t29 67.587
R109 GND.n700 GND.t192 67.587
R110 GND.t0 GND.n1572 67.587
R111 GND.n52 GND.t98 60.579
R112 GND.n131 GND.t113 60.579
R113 GND.n210 GND.t64 60.579
R114 GND.n289 GND.t118 60.579
R115 GND.n368 GND.t102 60.579
R116 GND.n447 GND.t18 60.579
R117 GND.n526 GND.t116 60.579
R118 GND.n605 GND.t9 60.579
R119 GND.n1541 GND.t69 60.579
R120 GND.n1462 GND.t129 60.579
R121 GND.n1383 GND.t131 60.579
R122 GND.n1304 GND.t94 60.579
R123 GND.n1225 GND.t57 60.579
R124 GND.n1146 GND.t15 60.579
R125 GND.n1067 GND.t81 60.579
R126 GND.n988 GND.t132 60.579
R127 GND.n909 GND.t193 60.579
R128 GND.n830 GND.t186 60.579
R129 GND.n751 GND.t21 60.579
R130 GND.n672 GND.t52 60.579
R131 GND.n16 GND.t24 57.142
R132 GND.n93 GND.t138 57.142
R133 GND.n172 GND.t109 57.142
R134 GND.n251 GND.t122 57.142
R135 GND.n330 GND.t91 57.142
R136 GND.n409 GND.t92 57.142
R137 GND.n488 GND.t127 57.142
R138 GND.n567 GND.t86 57.142
R139 GND.n0 GND.t126 57.142
R140 GND.n1500 GND.t63 57.142
R141 GND.n1421 GND.t120 57.142
R142 GND.n1342 GND.t26 57.142
R143 GND.n1263 GND.t42 57.142
R144 GND.n1184 GND.t77 57.142
R145 GND.n1105 GND.t2 57.142
R146 GND.n1026 GND.t135 57.142
R147 GND.n947 GND.t19 57.142
R148 GND.n868 GND.t47 57.142
R149 GND.n789 GND.t44 57.142
R150 GND.n710 GND.t194 57.142
R151 GND.n646 GND.n641 50.786
R152 GND.n646 GND.n645 50.667
R153 GND.n24 GND.n23 50.667
R154 GND.n28 GND.n27 50.667
R155 GND.n31 GND.n30 50.667
R156 GND.n34 GND.n33 50.667
R157 GND.n37 GND.n36 50.667
R158 GND.n42 GND.n41 50.667
R159 GND.n45 GND.n44 50.667
R160 GND.n48 GND.n47 50.667
R161 GND.n51 GND.n50 50.667
R162 GND.n56 GND.n55 50.667
R163 GND.n59 GND.n58 50.667
R164 GND.n62 GND.n61 50.667
R165 GND.n65 GND.n64 50.667
R166 GND.n68 GND.n67 50.667
R167 GND.n71 GND.n70 50.667
R168 GND.n74 GND.n73 50.667
R169 GND.n78 GND.n77 50.667
R170 GND.n81 GND.n80 50.667
R171 GND.n86 GND.n85 50.667
R172 GND.n89 GND.n88 50.667
R173 GND.n92 GND.n91 50.667
R174 GND.n97 GND.n96 50.667
R175 GND.n100 GND.n99 50.667
R176 GND.n103 GND.n102 50.667
R177 GND.n107 GND.n106 50.667
R178 GND.n110 GND.n109 50.667
R179 GND.n113 GND.n112 50.667
R180 GND.n116 GND.n115 50.667
R181 GND.n121 GND.n120 50.667
R182 GND.n124 GND.n123 50.667
R183 GND.n127 GND.n126 50.667
R184 GND.n130 GND.n129 50.667
R185 GND.n135 GND.n134 50.667
R186 GND.n138 GND.n137 50.667
R187 GND.n141 GND.n140 50.667
R188 GND.n144 GND.n143 50.667
R189 GND.n147 GND.n146 50.667
R190 GND.n150 GND.n149 50.667
R191 GND.n153 GND.n152 50.667
R192 GND.n157 GND.n156 50.667
R193 GND.n160 GND.n159 50.667
R194 GND.n165 GND.n164 50.667
R195 GND.n168 GND.n167 50.667
R196 GND.n171 GND.n170 50.667
R197 GND.n176 GND.n175 50.667
R198 GND.n179 GND.n178 50.667
R199 GND.n182 GND.n181 50.667
R200 GND.n186 GND.n185 50.667
R201 GND.n189 GND.n188 50.667
R202 GND.n192 GND.n191 50.667
R203 GND.n195 GND.n194 50.667
R204 GND.n200 GND.n199 50.667
R205 GND.n203 GND.n202 50.667
R206 GND.n206 GND.n205 50.667
R207 GND.n209 GND.n208 50.667
R208 GND.n214 GND.n213 50.667
R209 GND.n217 GND.n216 50.667
R210 GND.n220 GND.n219 50.667
R211 GND.n223 GND.n222 50.667
R212 GND.n226 GND.n225 50.667
R213 GND.n229 GND.n228 50.667
R214 GND.n232 GND.n231 50.667
R215 GND.n236 GND.n235 50.667
R216 GND.n239 GND.n238 50.667
R217 GND.n244 GND.n243 50.667
R218 GND.n247 GND.n246 50.667
R219 GND.n250 GND.n249 50.667
R220 GND.n255 GND.n254 50.667
R221 GND.n258 GND.n257 50.667
R222 GND.n261 GND.n260 50.667
R223 GND.n265 GND.n264 50.667
R224 GND.n268 GND.n267 50.667
R225 GND.n271 GND.n270 50.667
R226 GND.n274 GND.n273 50.667
R227 GND.n279 GND.n278 50.667
R228 GND.n282 GND.n281 50.667
R229 GND.n285 GND.n284 50.667
R230 GND.n288 GND.n287 50.667
R231 GND.n293 GND.n292 50.667
R232 GND.n296 GND.n295 50.667
R233 GND.n299 GND.n298 50.667
R234 GND.n302 GND.n301 50.667
R235 GND.n305 GND.n304 50.667
R236 GND.n308 GND.n307 50.667
R237 GND.n311 GND.n310 50.667
R238 GND.n315 GND.n314 50.667
R239 GND.n318 GND.n317 50.667
R240 GND.n323 GND.n322 50.667
R241 GND.n326 GND.n325 50.667
R242 GND.n329 GND.n328 50.667
R243 GND.n334 GND.n333 50.667
R244 GND.n337 GND.n336 50.667
R245 GND.n340 GND.n339 50.667
R246 GND.n344 GND.n343 50.667
R247 GND.n347 GND.n346 50.667
R248 GND.n350 GND.n349 50.667
R249 GND.n353 GND.n352 50.667
R250 GND.n358 GND.n357 50.667
R251 GND.n361 GND.n360 50.667
R252 GND.n364 GND.n363 50.667
R253 GND.n367 GND.n366 50.667
R254 GND.n372 GND.n371 50.667
R255 GND.n375 GND.n374 50.667
R256 GND.n378 GND.n377 50.667
R257 GND.n381 GND.n380 50.667
R258 GND.n384 GND.n383 50.667
R259 GND.n387 GND.n386 50.667
R260 GND.n390 GND.n389 50.667
R261 GND.n394 GND.n393 50.667
R262 GND.n397 GND.n396 50.667
R263 GND.n402 GND.n401 50.667
R264 GND.n405 GND.n404 50.667
R265 GND.n408 GND.n407 50.667
R266 GND.n413 GND.n412 50.667
R267 GND.n416 GND.n415 50.667
R268 GND.n419 GND.n418 50.667
R269 GND.n423 GND.n422 50.667
R270 GND.n426 GND.n425 50.667
R271 GND.n429 GND.n428 50.667
R272 GND.n432 GND.n431 50.667
R273 GND.n437 GND.n436 50.667
R274 GND.n440 GND.n439 50.667
R275 GND.n443 GND.n442 50.667
R276 GND.n446 GND.n445 50.667
R277 GND.n451 GND.n450 50.667
R278 GND.n454 GND.n453 50.667
R279 GND.n457 GND.n456 50.667
R280 GND.n460 GND.n459 50.667
R281 GND.n463 GND.n462 50.667
R282 GND.n466 GND.n465 50.667
R283 GND.n469 GND.n468 50.667
R284 GND.n473 GND.n472 50.667
R285 GND.n476 GND.n475 50.667
R286 GND.n481 GND.n480 50.667
R287 GND.n484 GND.n483 50.667
R288 GND.n487 GND.n486 50.667
R289 GND.n492 GND.n491 50.667
R290 GND.n495 GND.n494 50.667
R291 GND.n498 GND.n497 50.667
R292 GND.n502 GND.n501 50.667
R293 GND.n505 GND.n504 50.667
R294 GND.n508 GND.n507 50.667
R295 GND.n511 GND.n510 50.667
R296 GND.n516 GND.n515 50.667
R297 GND.n519 GND.n518 50.667
R298 GND.n522 GND.n521 50.667
R299 GND.n525 GND.n524 50.667
R300 GND.n530 GND.n529 50.667
R301 GND.n533 GND.n532 50.667
R302 GND.n536 GND.n535 50.667
R303 GND.n539 GND.n538 50.667
R304 GND.n542 GND.n541 50.667
R305 GND.n545 GND.n544 50.667
R306 GND.n548 GND.n547 50.667
R307 GND.n552 GND.n551 50.667
R308 GND.n555 GND.n554 50.667
R309 GND.n560 GND.n559 50.667
R310 GND.n563 GND.n562 50.667
R311 GND.n566 GND.n565 50.667
R312 GND.n571 GND.n570 50.667
R313 GND.n574 GND.n573 50.667
R314 GND.n577 GND.n576 50.667
R315 GND.n581 GND.n580 50.667
R316 GND.n584 GND.n583 50.667
R317 GND.n587 GND.n586 50.667
R318 GND.n590 GND.n589 50.667
R319 GND.n595 GND.n594 50.667
R320 GND.n598 GND.n597 50.667
R321 GND.n601 GND.n600 50.667
R322 GND.n604 GND.n603 50.667
R323 GND.n609 GND.n608 50.667
R324 GND.n612 GND.n611 50.667
R325 GND.n615 GND.n614 50.667
R326 GND.n618 GND.n617 50.667
R327 GND.n621 GND.n620 50.667
R328 GND.n624 GND.n623 50.667
R329 GND.n627 GND.n626 50.667
R330 GND.n631 GND.n630 50.667
R331 GND.n634 GND.n633 50.667
R332 GND.n1555 GND.n1553 50.667
R333 GND.n1545 GND.n1544 50.667
R334 GND.n1540 GND.n1539 50.667
R335 GND.n1537 GND.n1536 50.667
R336 GND.n1534 GND.n1533 50.667
R337 GND.n1531 GND.n1530 50.667
R338 GND.n1528 GND.n1527 50.667
R339 GND.n1525 GND.n1524 50.667
R340 GND.n1522 GND.n1521 50.667
R341 GND.n1518 GND.n1517 50.667
R342 GND.n1515 GND.n1514 50.667
R343 GND.n1510 GND.n1509 50.667
R344 GND.n1507 GND.n1506 50.667
R345 GND.n1504 GND.n1503 50.667
R346 GND.n1499 GND.n1498 50.667
R347 GND.n1496 GND.n1495 50.667
R348 GND.n1493 GND.n1492 50.667
R349 GND.n1489 GND.n1488 50.667
R350 GND.n1486 GND.n1485 50.667
R351 GND.n1483 GND.n1482 50.667
R352 GND.n1480 GND.n1479 50.667
R353 GND.n1475 GND.n1474 50.667
R354 GND.n1472 GND.n1471 50.667
R355 GND.n1469 GND.n1468 50.667
R356 GND.n1466 GND.n1465 50.667
R357 GND.n1461 GND.n1460 50.667
R358 GND.n1458 GND.n1457 50.667
R359 GND.n1455 GND.n1454 50.667
R360 GND.n1452 GND.n1451 50.667
R361 GND.n1449 GND.n1448 50.667
R362 GND.n1446 GND.n1445 50.667
R363 GND.n1443 GND.n1442 50.667
R364 GND.n1439 GND.n1438 50.667
R365 GND.n1436 GND.n1435 50.667
R366 GND.n1431 GND.n1430 50.667
R367 GND.n1428 GND.n1427 50.667
R368 GND.n1425 GND.n1424 50.667
R369 GND.n1420 GND.n1419 50.667
R370 GND.n1417 GND.n1416 50.667
R371 GND.n1414 GND.n1413 50.667
R372 GND.n1410 GND.n1409 50.667
R373 GND.n1407 GND.n1406 50.667
R374 GND.n1404 GND.n1403 50.667
R375 GND.n1401 GND.n1400 50.667
R376 GND.n1396 GND.n1395 50.667
R377 GND.n1393 GND.n1392 50.667
R378 GND.n1390 GND.n1389 50.667
R379 GND.n1387 GND.n1386 50.667
R380 GND.n1382 GND.n1381 50.667
R381 GND.n1379 GND.n1378 50.667
R382 GND.n1376 GND.n1375 50.667
R383 GND.n1373 GND.n1372 50.667
R384 GND.n1370 GND.n1369 50.667
R385 GND.n1367 GND.n1366 50.667
R386 GND.n1364 GND.n1363 50.667
R387 GND.n1360 GND.n1359 50.667
R388 GND.n1357 GND.n1356 50.667
R389 GND.n1352 GND.n1351 50.667
R390 GND.n1349 GND.n1348 50.667
R391 GND.n1346 GND.n1345 50.667
R392 GND.n1341 GND.n1340 50.667
R393 GND.n1338 GND.n1337 50.667
R394 GND.n1335 GND.n1334 50.667
R395 GND.n1331 GND.n1330 50.667
R396 GND.n1328 GND.n1327 50.667
R397 GND.n1325 GND.n1324 50.667
R398 GND.n1322 GND.n1321 50.667
R399 GND.n1317 GND.n1316 50.667
R400 GND.n1314 GND.n1313 50.667
R401 GND.n1311 GND.n1310 50.667
R402 GND.n1308 GND.n1307 50.667
R403 GND.n1303 GND.n1302 50.667
R404 GND.n1300 GND.n1299 50.667
R405 GND.n1297 GND.n1296 50.667
R406 GND.n1294 GND.n1293 50.667
R407 GND.n1291 GND.n1290 50.667
R408 GND.n1288 GND.n1287 50.667
R409 GND.n1285 GND.n1284 50.667
R410 GND.n1281 GND.n1280 50.667
R411 GND.n1278 GND.n1277 50.667
R412 GND.n1273 GND.n1272 50.667
R413 GND.n1270 GND.n1269 50.667
R414 GND.n1267 GND.n1266 50.667
R415 GND.n1262 GND.n1261 50.667
R416 GND.n1259 GND.n1258 50.667
R417 GND.n1256 GND.n1255 50.667
R418 GND.n1252 GND.n1251 50.667
R419 GND.n1249 GND.n1248 50.667
R420 GND.n1246 GND.n1245 50.667
R421 GND.n1243 GND.n1242 50.667
R422 GND.n1238 GND.n1237 50.667
R423 GND.n1235 GND.n1234 50.667
R424 GND.n1232 GND.n1231 50.667
R425 GND.n1229 GND.n1228 50.667
R426 GND.n1224 GND.n1223 50.667
R427 GND.n1221 GND.n1220 50.667
R428 GND.n1218 GND.n1217 50.667
R429 GND.n1215 GND.n1214 50.667
R430 GND.n1212 GND.n1211 50.667
R431 GND.n1209 GND.n1208 50.667
R432 GND.n1206 GND.n1205 50.667
R433 GND.n1202 GND.n1201 50.667
R434 GND.n1199 GND.n1198 50.667
R435 GND.n1194 GND.n1193 50.667
R436 GND.n1191 GND.n1190 50.667
R437 GND.n1188 GND.n1187 50.667
R438 GND.n1183 GND.n1182 50.667
R439 GND.n1180 GND.n1179 50.667
R440 GND.n1177 GND.n1176 50.667
R441 GND.n1173 GND.n1172 50.667
R442 GND.n1170 GND.n1169 50.667
R443 GND.n1167 GND.n1166 50.667
R444 GND.n1164 GND.n1163 50.667
R445 GND.n1159 GND.n1158 50.667
R446 GND.n1156 GND.n1155 50.667
R447 GND.n1153 GND.n1152 50.667
R448 GND.n1150 GND.n1149 50.667
R449 GND.n1145 GND.n1144 50.667
R450 GND.n1142 GND.n1141 50.667
R451 GND.n1139 GND.n1138 50.667
R452 GND.n1136 GND.n1135 50.667
R453 GND.n1133 GND.n1132 50.667
R454 GND.n1130 GND.n1129 50.667
R455 GND.n1127 GND.n1126 50.667
R456 GND.n1123 GND.n1122 50.667
R457 GND.n1120 GND.n1119 50.667
R458 GND.n1115 GND.n1114 50.667
R459 GND.n1112 GND.n1111 50.667
R460 GND.n1109 GND.n1108 50.667
R461 GND.n1104 GND.n1103 50.667
R462 GND.n1101 GND.n1100 50.667
R463 GND.n1098 GND.n1097 50.667
R464 GND.n1094 GND.n1093 50.667
R465 GND.n1091 GND.n1090 50.667
R466 GND.n1088 GND.n1087 50.667
R467 GND.n1085 GND.n1084 50.667
R468 GND.n1080 GND.n1079 50.667
R469 GND.n1077 GND.n1076 50.667
R470 GND.n1074 GND.n1073 50.667
R471 GND.n1071 GND.n1070 50.667
R472 GND.n1066 GND.n1065 50.667
R473 GND.n1063 GND.n1062 50.667
R474 GND.n1060 GND.n1059 50.667
R475 GND.n1057 GND.n1056 50.667
R476 GND.n1054 GND.n1053 50.667
R477 GND.n1051 GND.n1050 50.667
R478 GND.n1048 GND.n1047 50.667
R479 GND.n1044 GND.n1043 50.667
R480 GND.n1041 GND.n1040 50.667
R481 GND.n1036 GND.n1035 50.667
R482 GND.n1033 GND.n1032 50.667
R483 GND.n1030 GND.n1029 50.667
R484 GND.n1025 GND.n1024 50.667
R485 GND.n1022 GND.n1021 50.667
R486 GND.n1019 GND.n1018 50.667
R487 GND.n1015 GND.n1014 50.667
R488 GND.n1012 GND.n1011 50.667
R489 GND.n1009 GND.n1008 50.667
R490 GND.n1006 GND.n1005 50.667
R491 GND.n1001 GND.n1000 50.667
R492 GND.n998 GND.n997 50.667
R493 GND.n995 GND.n994 50.667
R494 GND.n992 GND.n991 50.667
R495 GND.n987 GND.n986 50.667
R496 GND.n984 GND.n983 50.667
R497 GND.n981 GND.n980 50.667
R498 GND.n978 GND.n977 50.667
R499 GND.n975 GND.n974 50.667
R500 GND.n972 GND.n971 50.667
R501 GND.n969 GND.n968 50.667
R502 GND.n965 GND.n964 50.667
R503 GND.n962 GND.n961 50.667
R504 GND.n957 GND.n956 50.667
R505 GND.n954 GND.n953 50.667
R506 GND.n951 GND.n950 50.667
R507 GND.n946 GND.n945 50.667
R508 GND.n943 GND.n942 50.667
R509 GND.n940 GND.n939 50.667
R510 GND.n936 GND.n935 50.667
R511 GND.n933 GND.n932 50.667
R512 GND.n930 GND.n929 50.667
R513 GND.n927 GND.n926 50.667
R514 GND.n922 GND.n921 50.667
R515 GND.n919 GND.n918 50.667
R516 GND.n916 GND.n915 50.667
R517 GND.n913 GND.n912 50.667
R518 GND.n908 GND.n907 50.667
R519 GND.n905 GND.n904 50.667
R520 GND.n902 GND.n901 50.667
R521 GND.n899 GND.n898 50.667
R522 GND.n896 GND.n895 50.667
R523 GND.n893 GND.n892 50.667
R524 GND.n890 GND.n889 50.667
R525 GND.n886 GND.n885 50.667
R526 GND.n883 GND.n882 50.667
R527 GND.n878 GND.n877 50.667
R528 GND.n875 GND.n874 50.667
R529 GND.n872 GND.n871 50.667
R530 GND.n867 GND.n866 50.667
R531 GND.n864 GND.n863 50.667
R532 GND.n861 GND.n860 50.667
R533 GND.n857 GND.n856 50.667
R534 GND.n854 GND.n853 50.667
R535 GND.n851 GND.n850 50.667
R536 GND.n848 GND.n847 50.667
R537 GND.n843 GND.n842 50.667
R538 GND.n840 GND.n839 50.667
R539 GND.n837 GND.n836 50.667
R540 GND.n834 GND.n833 50.667
R541 GND.n829 GND.n828 50.667
R542 GND.n826 GND.n825 50.667
R543 GND.n823 GND.n822 50.667
R544 GND.n820 GND.n819 50.667
R545 GND.n817 GND.n816 50.667
R546 GND.n814 GND.n813 50.667
R547 GND.n811 GND.n810 50.667
R548 GND.n807 GND.n806 50.667
R549 GND.n804 GND.n803 50.667
R550 GND.n799 GND.n798 50.667
R551 GND.n796 GND.n795 50.667
R552 GND.n793 GND.n792 50.667
R553 GND.n788 GND.n787 50.667
R554 GND.n785 GND.n784 50.667
R555 GND.n782 GND.n781 50.667
R556 GND.n778 GND.n777 50.667
R557 GND.n775 GND.n774 50.667
R558 GND.n772 GND.n771 50.667
R559 GND.n769 GND.n768 50.667
R560 GND.n764 GND.n763 50.667
R561 GND.n761 GND.n760 50.667
R562 GND.n758 GND.n757 50.667
R563 GND.n755 GND.n754 50.667
R564 GND.n750 GND.n749 50.667
R565 GND.n747 GND.n746 50.667
R566 GND.n744 GND.n743 50.667
R567 GND.n741 GND.n740 50.667
R568 GND.n738 GND.n737 50.667
R569 GND.n735 GND.n734 50.667
R570 GND.n732 GND.n731 50.667
R571 GND.n728 GND.n727 50.667
R572 GND.n725 GND.n724 50.667
R573 GND.n720 GND.n719 50.667
R574 GND.n717 GND.n716 50.667
R575 GND.n714 GND.n713 50.667
R576 GND.n709 GND.n708 50.667
R577 GND.n706 GND.n705 50.667
R578 GND.n703 GND.n702 50.667
R579 GND.n699 GND.n698 50.667
R580 GND.n696 GND.n695 50.667
R581 GND.n693 GND.n692 50.667
R582 GND.n690 GND.n689 50.667
R583 GND.n685 GND.n684 50.667
R584 GND.n682 GND.n681 50.667
R585 GND.n679 GND.n678 50.667
R586 GND.n676 GND.n675 50.667
R587 GND.n671 GND.n670 50.667
R588 GND.n668 GND.n667 50.667
R589 GND.n665 GND.n664 50.667
R590 GND.n662 GND.n661 50.667
R591 GND.n659 GND.n658 50.667
R592 GND.n656 GND.n655 50.667
R593 GND.n653 GND.n652 50.667
R594 GND.n649 GND.n648 50.667
R595 GND.n82 GND.t32 38.571
R596 GND.n82 GND.t100 38.571
R597 GND.n161 GND.t128 38.571
R598 GND.n161 GND.t68 38.571
R599 GND.n240 GND.t117 38.571
R600 GND.n240 GND.t134 38.571
R601 GND.n319 GND.t119 38.571
R602 GND.n319 GND.t133 38.571
R603 GND.n398 GND.t108 38.571
R604 GND.n398 GND.t60 38.571
R605 GND.n477 GND.t139 38.571
R606 GND.n477 GND.t88 38.571
R607 GND.n556 GND.t71 38.571
R608 GND.n556 GND.t190 38.571
R609 GND.n1 GND.t182 38.571
R610 GND.n1 GND.t28 38.571
R611 GND.n1511 GND.t125 38.571
R612 GND.n1511 GND.t79 38.571
R613 GND.n1432 GND.t59 38.571
R614 GND.n1432 GND.t183 38.571
R615 GND.n1353 GND.t74 38.571
R616 GND.n1353 GND.t76 38.571
R617 GND.n1274 GND.t137 38.571
R618 GND.n1274 GND.t87 38.571
R619 GND.n1195 GND.t114 38.571
R620 GND.n1195 GND.t53 38.571
R621 GND.n1116 GND.t90 38.571
R622 GND.n1116 GND.t3 38.571
R623 GND.n1037 GND.t27 38.571
R624 GND.n1037 GND.t196 38.571
R625 GND.n958 GND.t56 38.571
R626 GND.n958 GND.t55 38.571
R627 GND.n879 GND.t50 38.571
R628 GND.n879 GND.t12 38.571
R629 GND.n800 GND.t33 38.571
R630 GND.n800 GND.t11 38.571
R631 GND.n721 GND.t188 38.571
R632 GND.n721 GND.t37 38.571
R633 GND.n643 GND.t61 38.571
R634 GND.n643 GND.t103 38.571
R635 GND.n19 GND.n16 35.847
R636 GND.n94 GND.n93 35.847
R637 GND.n173 GND.n172 35.847
R638 GND.n252 GND.n251 35.847
R639 GND.n331 GND.n330 35.847
R640 GND.n410 GND.n409 35.847
R641 GND.n489 GND.n488 35.847
R642 GND.n568 GND.n567 35.847
R643 GND.n11 GND.n0 35.847
R644 GND.n1501 GND.n1500 35.847
R645 GND.n1422 GND.n1421 35.847
R646 GND.n1343 GND.n1342 35.847
R647 GND.n1264 GND.n1263 35.847
R648 GND.n1185 GND.n1184 35.847
R649 GND.n1106 GND.n1105 35.847
R650 GND.n1027 GND.n1026 35.847
R651 GND.n948 GND.n947 35.847
R652 GND.n869 GND.n868 35.847
R653 GND.n790 GND.n789 35.847
R654 GND.n711 GND.n710 35.847
R655 GND.n21 GND.n20 28.613
R656 GND.n16 GND.t130 25.428
R657 GND.n93 GND.t67 25.428
R658 GND.n172 GND.t89 25.428
R659 GND.n251 GND.t70 25.428
R660 GND.n330 GND.t106 25.428
R661 GND.n409 GND.t31 25.428