* NGSPICE file created from 20bitCounter_flat.ext - technology: sky130A

V1 sky130_fd_sc_hd__dfrbp_1_0[9]/VPB GND 1.8
V2 sky130_fd_sc_hd__dfrbp_1_0[0]/CLK GND pulse(0V 1.8V clk_offset clk_risetime clk_falltime {clk_period/2} clk_period 0deg) 
V4 sky130_fd_sc_hd__dfrbp_1_0[9]/RESET_B GND pwl(0.0us 1.8V, 0.090us 1.8V, 0.091us 0.0V, 0.100us 0.0V, 0.101us 1.8V)

.param clk_period=1us clk_offset={clk_period/2} clk_risetime=20ns clk_falltime={clk_risetime}
.func data_time(x) {clk_offset/2 + x*(clk_period/2)}

.tran 10ns {32*clk_period}
.save sky130_fd_sc_hd__dfrbp_1_0[0]/CLK sky130_fd_sc_hd__dfrbp_1_0[9]/RESET_B
.save sky130_fd_sc_hd__dfrbp_1_0[0]/Q sky130_fd_sc_hd__dfrbp_1_0[1]/Q sky130_fd_sc_hd__dfrbp_1_0[2]/Q sky130_fd_sc_hd__dfrbp_1_0[3]/Q
.save sky130_fd_sc_hd__dfrbp_1_0[4]/Q sky130_fd_sc_hd__dfrbp_1_0[5]/Q sky130_fd_sc_hd__dfrbp_1_0[6]/Q sky130_fd_sc_hd__dfrbp_1_0[7]/Q
.save sky130_fd_sc_hd__dfrbp_1_0[8]/Q sky130_fd_sc_hd__dfrbp_1_0[9]/Q sky130_fd_sc_hd__dfrbp_1_0[10]/Q sky130_fd_sc_hd__dfrbp_1_0[11]/Q
.save sky130_fd_sc_hd__dfrbp_1_0[12]/Q sky130_fd_sc_hd__dfrbp_1_0[13]/Q sky130_fd_sc_hd__dfrbp_1_0[14]/Q sky130_fd_sc_hd__dfrbp_1_[15]/Q
.save sky130_fd_sc_hd__dfrbp_1_0[16]/Q sky130_fd_sc_hd__dfrbp_1_0[17]/Q sky130_fd_sc_hd__dfrbp_1_0[18]/Q sky130_fd_sc_hd__dfrbp_1_0[19]/Q

.lib ~/open_pdks/sky130/sky130A/libs.tech/ngspice/sky130.lib.spice tt

* Top level circuit 20bitCounter_flat

X0 sky130_fd_sc_hd__dfrbp_1_0[9]/VPB.t222 a_41487_21# a_41474_413# sky130_fd_sc_hd__dfrbp_1_0[9]/VPB sky130_fd_pr__pfet_01v8_hvt ad=0p pd=0u as=0p ps=0u w=420000u l=150000u
X1 sky130_fd_sc_hd__dfrbp_1_0[9]/VPB.t104 a_20327_21# a_20314_413# sky130_fd_sc_hd__dfrbp_1_0[9]/VPB sky130_fd_pr__pfet_01v8_hvt ad=0p pd=0u as=0p ps=0u w=420000u l=150000u
X2 a_9681_47# a_8491_47# a_9572_47# GND sky130_fd_pr__nfet_01v8 ad=0p pd=0u as=0p ps=0u w=360000u l=150000u
X3 sky130_fd_sc_hd__dfrbp_1_0[9]/VPB.t93 a_22268_47# a_22443_21# sky130_fd_sc_hd__dfrbp_1_0[9]/VPB sky130_fd_pr__pfet_01v8_hvt ad=0p pd=0u as=0p ps=0u w=420000u l=150000u
X4 a_33202_47# sky130_fd_sc_hd__dfrbp_1_0[9]/RESET_B GND GND sky130_fd_pr__nfet_01v8 ad=0p pd=0u as=0p ps=0u w=420000u l=150000u
X5 sky130_fd_sc_hd__dfrbp_1_0[4]/Q a_9747_21# sky130_fd_sc_hd__dfrbp_1_0[9]/VPB.t60 sky130_fd_sc_hd__dfrbp_1_0[9]/VPB sky130_fd_pr__pfet_01v8_hvt ad=0p pd=0u as=0p ps=0u w=1e+06u l=150000u
X6 GND sky130_fd_sc_hd__dfrbp_1_0[9]/RESET_B a_15617_47# GND sky130_fd_pr__nfet_01v8 ad=0p pd=0u as=0p ps=0u w=420000u l=150000u
X7 a_32379_47# a_31933_47# a_32283_47# GND sky130_fd_pr__nfet_01v8 ad=0p pd=0u as=0p ps=0u w=360000u l=150000u
X8 sky130_fd_sc_hd__dfrbp_1_0[14]/Q a_30907_21# sky130_fd_sc_hd__dfrbp_1_0[9]/VPB.t12 sky130_fd_sc_hd__dfrbp_1_0[9]/VPB sky130_fd_pr__pfet_01v8_hvt ad=0p pd=0u as=0p ps=0u w=1e+06u l=150000u
X9 sky130_fd_sc_hd__dfrbp_1_0[9]/VPB.t59 a_9747_21# a_10311_47# sky130_fd_sc_hd__dfrbp_1_0[9]/VPB sky130_fd_pr__pfet_01v8_hvt ad=0p pd=0u as=0p ps=0u w=640000u l=150000u
X10 sky130_fd_sc_hd__dfrbp_1_0[18]/D a_39935_47# sky130_fd_sc_hd__dfrbp_1_0[9]/VPB.t129 sky130_fd_sc_hd__dfrbp_1_0[9]/VPB sky130_fd_pr__pfet_01v8_hvt ad=0p pd=0u as=0p ps=0u w=1e+06u l=150000u
X11 sky130_fd_sc_hd__dfrbp_1_0[9]/VPB.t11 a_30907_21# a_31471_47# sky130_fd_sc_hd__dfrbp_1_0[9]/VPB sky130_fd_pr__pfet_01v8_hvt ad=0p pd=0u as=0p ps=0u w=640000u l=150000u
X12 a_24384_47# a_23469_47# a_24037_289# GND sky130_fd_pr__nfet_01v8 ad=0p pd=0u as=0p ps=0u w=360000u l=150000u
X13 a_30167_47# a_29651_47# a_30072_47# GND sky130_fd_pr__nfet_01v8 ad=0p pd=0u as=0p ps=0u w=360000u l=150000u
X14 a_19237_47# a_19071_47# GND GND sky130_fd_pr__nfet_01v8 ad=0p pd=0u as=0p ps=0u w=420000u l=150000u
X15 a_805_47# a_761_289# a_639_47# GND sky130_fd_pr__nfet_01v8 ad=0p pd=0u as=0p ps=0u w=420000u l=150000u
X16 sky130_fd_sc_hd__dfrbp_1_0[7]/Q a_16095_21# sky130_fd_sc_hd__dfrbp_1_0[9]/VPB.t140 sky130_fd_sc_hd__dfrbp_1_0[9]/VPB sky130_fd_pr__pfet_01v8_hvt ad=0p pd=0u as=0p ps=0u w=1e+06u l=150000u
X17 sky130_fd_sc_hd__dfrbp_1_0[17]/Q a_37255_21# sky130_fd_sc_hd__dfrbp_1_0[9]/VPB.t230 sky130_fd_sc_hd__dfrbp_1_0[9]/VPB sky130_fd_pr__pfet_01v8_hvt ad=0p pd=0u as=0p ps=0u w=1e+06u l=150000u
X18 a_38631_47# a_38115_47# a_38536_47# GND sky130_fd_pr__nfet_01v8 ad=0p pd=0u as=0p ps=0u w=360000u l=150000u
X19 sky130_fd_sc_hd__dfrbp_1_0[1]/Q a_3399_21# sky130_fd_sc_hd__dfrbp_1_0[9]/VPB.t227 sky130_fd_sc_hd__dfrbp_1_0[9]/VPB sky130_fd_pr__pfet_01v8_hvt ad=0p pd=0u as=0p ps=0u w=1e+06u l=150000u
X20 sky130_fd_sc_hd__dfrbp_1_0[9]/VPB.t236 a_5515_21# a_6079_47# sky130_fd_sc_hd__dfrbp_1_0[9]/VPB sky130_fd_pr__pfet_01v8_hvt ad=0p pd=0u as=0p ps=0u w=640000u l=150000u
X21 sky130_fd_sc_hd__dfrbp_1_0[9]/VPB.t229 a_37255_21# a_37819_47# sky130_fd_sc_hd__dfrbp_1_0[9]/VPB sky130_fd_pr__pfet_01v8_hvt ad=0p pd=0u as=0p ps=0u w=640000u l=150000u
X22 a_11219_47# a_10773_47# a_11123_47# GND sky130_fd_pr__nfet_01v8 ad=0p pd=0u as=0p ps=0u w=360000u l=150000u
X23 sky130_fd_sc_hd__dfrbp_1_0[9]/VPB.t7 a_28616_47# a_28791_21# sky130_fd_sc_hd__dfrbp_1_0[9]/VPB sky130_fd_pr__pfet_01v8_hvt ad=0p pd=0u as=0p ps=0u w=420000u l=150000u
X24 GND sky130_fd_sc_hd__dfrbp_1_0[9]/RESET_B a_24081_47# GND sky130_fd_pr__nfet_01v8 ad=0p pd=0u as=0p ps=0u w=420000u l=150000u
X25 a_36420_47# sky130_fd_sc_hd__dfrbp_1_0[17]/D GND GND sky130_fd_pr__nfet_01v8 ad=0p pd=0u as=0p ps=0u w=420000u l=150000u
X26 sky130_fd_sc_hd__dfrbp_1_0[18]/D a_39935_47# GND GND sky130_fd_pr__nfet_01v8 ad=0p pd=0u as=0p ps=0u w=650000u l=150000u
X27 a_19683_47# a_19237_47# a_19587_47# GND sky130_fd_pr__nfet_01v8 ad=0p pd=0u as=0p ps=0u w=360000u l=150000u
X28 GND a_16095_21# a_16659_47# GND sky130_fd_pr__nfet_01v8 ad=0p pd=0u as=0p ps=0u w=420000u l=150000u
X29 a_9926_47# sky130_fd_sc_hd__dfrbp_1_0[9]/RESET_B GND GND sky130_fd_pr__nfet_01v8 ad=0p pd=0u as=0p ps=0u w=420000u l=150000u
X30 sky130_fd_sc_hd__dfrbp_1_0[6]/Q a_13979_21# sky130_fd_sc_hd__dfrbp_1_0[9]/VPB.t63 sky130_fd_sc_hd__dfrbp_1_0[9]/VPB sky130_fd_pr__pfet_01v8_hvt ad=0p pd=0u as=0p ps=0u w=1e+06u l=150000u
X31 sky130_fd_sc_hd__dfrbp_1_0[16]/Q a_35139_21# sky130_fd_sc_hd__dfrbp_1_0[9]/VPB.t66 sky130_fd_sc_hd__dfrbp_1_0[9]/VPB sky130_fd_pr__pfet_01v8_hvt ad=0p pd=0u as=0p ps=0u w=1e+06u l=150000u
X32 sky130_fd_sc_hd__dfrbp_1_0[1]/D a_3963_47# GND GND sky130_fd_pr__nfet_01v8 ad=0p pd=0u as=0p ps=0u w=650000u l=150000u
X33 sky130_fd_sc_hd__dfrbp_1_0[16]/Q a_35139_21# GND GND sky130_fd_pr__nfet_01v8 ad=0p pd=0u as=0p ps=0u w=650000u l=150000u
X34 a_30275_413# sky130_fd_sc_hd__dfrbp_1_0[9]/RESET_B sky130_fd_sc_hd__dfrbp_1_0[9]/VPB.t195 sky130_fd_sc_hd__dfrbp_1_0[9]/VPB sky130_fd_pr__pfet_01v8_hvt ad=0p pd=0u as=0p ps=0u w=420000u l=150000u
X35 GND sky130_fd_sc_hd__dfrbp_1_0[12]/D a_27535_47# GND sky130_fd_pr__nfet_01v8 ad=0p pd=0u as=0p ps=0u w=420000u l=150000u
X36 a_17471_47# a_16955_47# a_17376_47# GND sky130_fd_pr__nfet_01v8 ad=0p pd=0u as=0p ps=0u w=360000u l=150000u
X37 sky130_fd_sc_hd__dfrbp_1_0[9]/VPB.t226 a_3399_21# a_3963_47# sky130_fd_sc_hd__dfrbp_1_0[9]/VPB sky130_fd_pr__pfet_01v8_hvt ad=0p pd=0u as=0p ps=0u w=640000u l=150000u
X38 sky130_fd_sc_hd__dfrbp_1_0[9]/VPB.t62 a_13979_21# a_14543_47# sky130_fd_sc_hd__dfrbp_1_0[9]/VPB sky130_fd_pr__pfet_01v8_hvt ad=0p pd=0u as=0p ps=0u w=640000u l=150000u
X39 sky130_fd_sc_hd__dfrbp_1_0[9]/VPB.t65 a_35139_21# a_35703_47# sky130_fd_sc_hd__dfrbp_1_0[9]/VPB sky130_fd_pr__pfet_01v8_hvt ad=0p pd=0u as=0p ps=0u w=640000u l=150000u
X40 sky130_fd_sc_hd__dfrbp_1_0[9]/VPB.t47 a_1283_21# a_1847_47# sky130_fd_sc_hd__dfrbp_1_0[9]/VPB sky130_fd_pr__pfet_01v8_hvt ad=0p pd=0u as=0p ps=0u w=640000u l=150000u
X41 a_28791_21# a_28616_47# a_28970_47# GND sky130_fd_pr__nfet_01v8 ad=0p pd=0u as=0p ps=0u w=420000u l=150000u
X42 sky130_fd_sc_hd__dfrbp_1_0[9]/VPB.t101 sky130_fd_sc_hd__dfrbp_1_0[13]/D a_29651_47# sky130_fd_sc_hd__dfrbp_1_0[9]/VPB sky130_fd_pr__pfet_01v8_hvt ad=0p pd=0u as=0p ps=0u w=640000u l=150000u
X43 a_4883_413# sky130_fd_sc_hd__dfrbp_1_0[9]/RESET_B sky130_fd_sc_hd__dfrbp_1_0[9]/VPB.t194 sky130_fd_sc_hd__dfrbp_1_0[9]/VPB sky130_fd_pr__pfet_01v8_hvt ad=0p pd=0u as=0p ps=0u w=420000u l=150000u
X44 a_1108_47# a_193_47# a_761_289# GND sky130_fd_pr__nfet_01v8 ad=0p pd=0u as=0p ps=0u w=360000u l=150000u
X45 sky130_fd_sc_hd__dfrbp_1_0[9]/VPB.t116 a_11863_21# a_12427_47# sky130_fd_sc_hd__dfrbp_1_0[9]/VPB sky130_fd_pr__pfet_01v8_hvt ad=0p pd=0u as=0p ps=0u w=640000u l=150000u
X46 a_15005_47# a_14839_47# GND GND sky130_fd_pr__nfet_01v8 ad=0p pd=0u as=0p ps=0u w=420000u l=150000u
X47 sky130_fd_sc_hd__dfrbp_1_0[9]/VPB.t200 a_33023_21# a_33587_47# sky130_fd_sc_hd__dfrbp_1_0[9]/VPB sky130_fd_pr__pfet_01v8_hvt ad=0p pd=0u as=0p ps=0u w=640000u l=150000u
X48 a_9572_47# a_8657_47# a_9225_289# GND sky130_fd_pr__nfet_01v8 ad=0p pd=0u as=0p ps=0u w=360000u l=150000u
X49 GND sky130_fd_sc_hd__dfrbp_1_0[16]/D a_35999_47# GND sky130_fd_pr__nfet_01v8 ad=0p pd=0u as=0p ps=0u w=420000u l=150000u
X50 a_1283_21# a_1108_47# a_1462_47# GND sky130_fd_pr__nfet_01v8 ad=0p pd=0u as=0p ps=0u w=420000u l=150000u
X51 sky130_fd_sc_hd__dfrbp_1_0[3]/Q a_7631_21# sky130_fd_sc_hd__dfrbp_1_0[9]/VPB.t34 sky130_fd_sc_hd__dfrbp_1_0[9]/VPB sky130_fd_pr__pfet_01v8_hvt ad=0p pd=0u as=0p ps=0u w=1e+06u l=150000u
X52 a_17121_47# a_16955_47# sky130_fd_sc_hd__dfrbp_1_0[9]/VPB.t135 sky130_fd_sc_hd__dfrbp_1_0[9]/VPB sky130_fd_pr__pfet_01v8_hvt ad=0p pd=0u as=0p ps=0u w=640000u l=150000u
X53 a_38281_47# a_38115_47# sky130_fd_sc_hd__dfrbp_1_0[9]/VPB.t8 sky130_fd_sc_hd__dfrbp_1_0[9]/VPB sky130_fd_pr__pfet_01v8_hvt ad=0p pd=0u as=0p ps=0u w=640000u l=150000u
X54 sky130_fd_sc_hd__dfrbp_1_0[18]/Q a_39371_21# sky130_fd_sc_hd__dfrbp_1_0[9]/VPB.t154 sky130_fd_sc_hd__dfrbp_1_0[9]/VPB sky130_fd_pr__pfet_01v8_hvt ad=0p pd=0u as=0p ps=0u w=1e+06u l=150000u
X55 a_4425_47# a_4259_47# sky130_fd_sc_hd__dfrbp_1_0[9]/VPB.t78 sky130_fd_sc_hd__dfrbp_1_0[9]/VPB sky130_fd_pr__pfet_01v8_hvt ad=0p pd=0u as=0p ps=0u w=640000u l=150000u
X56 sky130_fd_sc_hd__dfrbp_1_0[9]/VPB.t33 a_7631_21# a_8195_47# sky130_fd_sc_hd__dfrbp_1_0[9]/VPB sky130_fd_pr__pfet_01v8_hvt ad=0p pd=0u as=0p ps=0u w=640000u l=150000u
X57 sky130_fd_sc_hd__dfrbp_1_0[9]/VPB.t153 a_39371_21# a_39935_47# sky130_fd_sc_hd__dfrbp_1_0[9]/VPB sky130_fd_pr__pfet_01v8_hvt ad=0p pd=0u as=0p ps=0u w=640000u l=150000u
X58 GND a_37255_21# a_37819_47# GND sky130_fd_pr__nfet_01v8 ad=0p pd=0u as=0p ps=0u w=420000u l=150000u
X59 a_36165_47# a_35999_47# sky130_fd_sc_hd__dfrbp_1_0[9]/VPB.t94 sky130_fd_sc_hd__dfrbp_1_0[9]/VPB sky130_fd_pr__pfet_01v8_hvt ad=0p pd=0u as=0p ps=0u w=640000u l=150000u
X60 a_2309_47# a_2143_47# sky130_fd_sc_hd__dfrbp_1_0[9]/VPB.t95 sky130_fd_sc_hd__dfrbp_1_0[9]/VPB sky130_fd_pr__pfet_01v8_hvt ad=0p pd=0u as=0p ps=0u w=640000u l=150000u
X61 GND sky130_fd_sc_hd__dfrbp_1_0[9]/RESET_B a_9269_47# GND sky130_fd_pr__nfet_01v8 ad=0p pd=0u as=0p ps=0u w=420000u l=150000u
X62 a_32391_413# sky130_fd_sc_hd__dfrbp_1_0[9]/RESET_B sky130_fd_sc_hd__dfrbp_1_0[9]/VPB.t193 sky130_fd_sc_hd__dfrbp_1_0[9]/VPB sky130_fd_pr__pfet_01v8_hvt ad=0p pd=0u as=0p ps=0u w=420000u l=150000u
X63 a_34049_47# a_33883_47# sky130_fd_sc_hd__dfrbp_1_0[9]/VPB.t89 sky130_fd_sc_hd__dfrbp_1_0[9]/VPB sky130_fd_pr__pfet_01v8_hvt ad=0p pd=0u as=0p ps=0u w=640000u l=150000u
X64 a_24384_47# a_23303_47# a_24037_289# sky130_fd_sc_hd__dfrbp_1_0[9]/VPB sky130_fd_pr__pfet_01v8_hvt ad=0p pd=0u as=0p ps=0u w=420000u l=150000u
X65 a_41474_413# a_40397_47# a_41312_47# sky130_fd_sc_hd__dfrbp_1_0[9]/VPB sky130_fd_pr__pfet_01v8_hvt ad=0p pd=0u as=0p ps=0u w=420000u l=150000u
X66 a_20314_413# a_19237_47# a_20152_47# sky130_fd_sc_hd__dfrbp_1_0[9]/VPB sky130_fd_pr__pfet_01v8_hvt ad=0p pd=0u as=0p ps=0u w=420000u l=150000u
X67 a_30841_47# a_29651_47# a_30732_47# GND sky130_fd_pr__nfet_01v8 ad=0p pd=0u as=0p ps=0u w=360000u l=150000u
X68 a_22443_21# sky130_fd_sc_hd__dfrbp_1_0[9]/RESET_B sky130_fd_sc_hd__dfrbp_1_0[9]/VPB.t192 sky130_fd_sc_hd__dfrbp_1_0[9]/VPB sky130_fd_pr__pfet_01v8_hvt ad=0p pd=0u as=0p ps=0u w=420000u l=150000u
X69 a_26609_47# a_25419_47# a_26500_47# GND sky130_fd_pr__nfet_01v8 ad=0p pd=0u as=0p ps=0u w=360000u l=150000u
X70 a_22268_47# a_21187_47# a_21921_289# sky130_fd_sc_hd__dfrbp_1_0[9]/VPB sky130_fd_pr__pfet_01v8_hvt ad=0p pd=0u as=0p ps=0u w=420000u l=150000u
X71 GND a_11863_21# a_11797_47# GND sky130_fd_pr__nfet_01v8 ad=0p pd=0u as=0p ps=0u w=420000u l=150000u
X72 a_14158_47# sky130_fd_sc_hd__dfrbp_1_0[9]/RESET_B GND GND sky130_fd_pr__nfet_01v8 ad=0p pd=0u as=0p ps=0u w=420000u l=150000u
X73 a_651_413# a_27_47# a_543_47# sky130_fd_sc_hd__dfrbp_1_0[9]/VPB sky130_fd_pr__pfet_01v8_hvt ad=0p pd=0u as=0p ps=0u w=420000u l=150000u
X74 GND a_37255_21# a_37189_47# GND sky130_fd_pr__nfet_01v8 ad=0p pd=0u as=0p ps=0u w=420000u l=150000u
X75 a_41487_21# sky130_fd_sc_hd__dfrbp_1_0[9]/RESET_B sky130_fd_sc_hd__dfrbp_1_0[9]/VPB.t191 sky130_fd_sc_hd__dfrbp_1_0[9]/VPB sky130_fd_pr__pfet_01v8_hvt ad=0p pd=0u as=0p ps=0u w=420000u l=150000u
X76 a_28616_47# a_27535_47# a_28269_289# sky130_fd_sc_hd__dfrbp_1_0[9]/VPB sky130_fd_pr__pfet_01v8_hvt ad=0p pd=0u as=0p ps=0u w=420000u l=150000u
X77 a_20327_21# sky130_fd_sc_hd__dfrbp_1_0[9]/RESET_B sky130_fd_sc_hd__dfrbp_1_0[9]/VPB.t190 sky130_fd_sc_hd__dfrbp_1_0[9]/VPB sky130_fd_pr__pfet_01v8_hvt ad=0p pd=0u as=0p ps=0u w=420000u l=150000u
X78 a_35073_47# a_33883_47# a_34964_47# GND sky130_fd_pr__nfet_01v8 ad=0p pd=0u as=0p ps=0u w=360000u l=150000u
X79 a_38536_47# sky130_fd_sc_hd__dfrbp_1_0[18]/D GND GND sky130_fd_pr__nfet_01v8 ad=0p pd=0u as=0p ps=0u w=420000u l=150000u
X80 a_34617_289# a_34399_47# GND GND sky130_fd_pr__nfet_01v8 ad=0p pd=0u as=0p ps=0u w=640000u l=150000u
X81 a_26500_47# a_25419_47# a_26153_289# sky130_fd_sc_hd__dfrbp_1_0[9]/VPB sky130_fd_pr__pfet_01v8_hvt ad=0p pd=0u as=0p ps=0u w=420000u l=150000u
X82 GND a_16095_21# a_16029_47# GND sky130_fd_pr__nfet_01v8 ad=0p pd=0u as=0p ps=0u w=420000u l=150000u
X83 a_32545_47# a_32501_289# a_32379_47# GND sky130_fd_pr__nfet_01v8 ad=0p pd=0u as=0p ps=0u w=420000u l=150000u
X84 a_13457_289# a_13239_47# GND GND sky130_fd_pr__nfet_01v8 ad=0p pd=0u as=0p ps=0u w=640000u l=150000u
X85 a_17376_47# sky130_fd_sc_hd__dfrbp_1_0[8]/D GND GND sky130_fd_pr__nfet_01v8 ad=0p pd=0u as=0p ps=0u w=420000u l=150000u
X86 sky130_fd_sc_hd__dfrbp_1_0[9]/VPB.t30 a_11341_289# a_11231_413# sky130_fd_sc_hd__dfrbp_1_0[9]/VPB sky130_fd_pr__pfet_01v8_hvt ad=0p pd=0u as=0p ps=0u w=420000u l=150000u
X87 a_38849_289# a_38631_47# GND GND sky130_fd_pr__nfet_01v8 ad=0p pd=0u as=0p ps=0u w=640000u l=150000u
X88 sky130_fd_sc_hd__dfrbp_1_0[9]/VPB.t72 a_32501_289# a_32391_413# sky130_fd_sc_hd__dfrbp_1_0[9]/VPB sky130_fd_pr__pfet_01v8_hvt ad=0p pd=0u as=0p ps=0u w=420000u l=150000u
X89 sky130_fd_sc_hd__dfrbp_1_0[13]/D a_29355_47# GND GND sky130_fd_pr__nfet_01v8 ad=0p pd=0u as=0p ps=0u w=650000u l=150000u
X90 a_11385_47# a_11341_289# a_11219_47# GND sky130_fd_pr__nfet_01v8 ad=0p pd=0u as=0p ps=0u w=420000u l=150000u
X91 a_35318_47# sky130_fd_sc_hd__dfrbp_1_0[9]/RESET_B GND GND sky130_fd_pr__nfet_01v8 ad=0p pd=0u as=0p ps=0u w=420000u l=150000u
X92 a_30732_47# a_29817_47# a_30385_289# GND sky130_fd_pr__nfet_01v8 ad=0p pd=0u as=0p ps=0u w=360000u l=150000u
X93 sky130_fd_sc_hd__dfrbp_1_0[9]/VPB.t31 a_4993_289# a_4883_413# sky130_fd_sc_hd__dfrbp_1_0[9]/VPB sky130_fd_pr__pfet_01v8_hvt ad=0p pd=0u as=0p ps=0u w=420000u l=150000u
X94 GND sky130_fd_sc_hd__dfrbp_1_0[7]/D a_16955_47# GND sky130_fd_pr__nfet_01v8 ad=0p pd=0u as=0p ps=0u w=420000u l=150000u
X95 a_26675_21# a_26500_47# a_26854_47# GND sky130_fd_pr__nfet_01v8 ad=0p pd=0u as=0p ps=0u w=420000u l=150000u
X96 sky130_fd_sc_hd__dfrbp_1_0[9]/VPB.t29 a_15573_289# a_15463_413# sky130_fd_sc_hd__dfrbp_1_0[9]/VPB sky130_fd_pr__pfet_01v8_hvt ad=0p pd=0u as=0p ps=0u w=420000u l=150000u
X97 sky130_fd_sc_hd__dfrbp_1_0[9]/VPB.t110 a_36733_289# a_36623_413# sky130_fd_sc_hd__dfrbp_1_0[9]/VPB sky130_fd_pr__pfet_01v8_hvt ad=0p pd=0u as=0p ps=0u w=420000u l=150000u
X98 sky130_fd_sc_hd__dfrbp_1_0[9]/VPB.t50 sky130_fd_sc_hd__dfrbp_1_0[16]/D a_35999_47# sky130_fd_sc_hd__dfrbp_1_0[9]/VPB sky130_fd_pr__pfet_01v8_hvt ad=0p pd=0u as=0p ps=0u w=640000u l=150000u
X99 sky130_fd_sc_hd__dfrbp_1_0[9]/VPB.t131 sky130_fd_sc_hd__dfrbp_1_0[0]/D a_2143_47# sky130_fd_sc_hd__dfrbp_1_0[9]/VPB sky130_fd_pr__pfet_01v8_hvt ad=0p pd=0u as=0p ps=0u w=640000u l=150000u
X100 sky130_fd_sc_hd__dfrbp_1_0[9]/VPB.t132 a_2877_289# a_2767_413# sky130_fd_sc_hd__dfrbp_1_0[9]/VPB sky130_fd_pr__pfet_01v8_hvt ad=0p pd=0u as=0p ps=0u w=420000u l=150000u
X101 GND sky130_fd_sc_hd__dfrbp_1_0[9]/RESET_B a_26197_47# GND sky130_fd_pr__nfet_01v8 ad=0p pd=0u as=0p ps=0u w=420000u l=150000u
X102 GND a_18211_21# a_18775_47# GND sky130_fd_pr__nfet_01v8 ad=0p pd=0u as=0p ps=0u w=420000u l=150000u
X103 sky130_fd_sc_hd__dfrbp_1_0[19]/Q a_41487_21# GND GND sky130_fd_pr__nfet_01v8 ad=0p pd=0u as=0p ps=0u w=650000u l=150000u
X104 a_19587_47# a_19071_47# a_19492_47# GND sky130_fd_pr__nfet_01v8 ad=0p pd=0u as=0p ps=0u w=360000u l=150000u
X105 sky130_fd_sc_hd__dfrbp_1_0[2]/D a_6079_47# GND GND sky130_fd_pr__nfet_01v8 ad=0p pd=0u as=0p ps=0u w=650000u l=150000u
X106 sky130_fd_sc_hd__dfrbp_1_0[9]/VPB.t96 a_13457_289# a_13347_413# sky130_fd_sc_hd__dfrbp_1_0[9]/VPB sky130_fd_pr__pfet_01v8_hvt ad=0p pd=0u as=0p ps=0u w=420000u l=150000u
X107 GND sky130_fd_sc_hd__dfrbp_1_0[15]/D a_33883_47# GND sky130_fd_pr__nfet_01v8 ad=0p pd=0u as=0p ps=0u w=420000u l=150000u
X108 sky130_fd_sc_hd__dfrbp_1_0[9]/VPB.t82 a_34617_289# a_34507_413# sky130_fd_sc_hd__dfrbp_1_0[9]/VPB sky130_fd_pr__pfet_01v8_hvt ad=0p pd=0u as=0p ps=0u w=420000u l=150000u
X109 sky130_fd_sc_hd__dfrbp_1_0[9]/Q a_20327_21# GND GND sky130_fd_pr__nfet_01v8 ad=0p pd=0u as=0p ps=0u w=650000u l=150000u
X110 sky130_fd_sc_hd__dfrbp_1_0[9]/VPB.t21 a_9225_289# a_9115_413# sky130_fd_sc_hd__dfrbp_1_0[9]/VPB sky130_fd_pr__pfet_01v8_hvt ad=0p pd=0u as=0p ps=0u w=420000u l=150000u
X111 GND sky130_fd_sc_hd__dfrbp_1_0[5]/D a_12723_47# GND sky130_fd_pr__nfet_01v8 ad=0p pd=0u as=0p ps=0u w=420000u l=150000u
X112 GND sky130_fd_sc_hd__dfrbp_1_0[9]/RESET_B a_805_47# GND sky130_fd_pr__nfet_01v8 ad=0p pd=0u as=0p ps=0u w=420000u l=150000u
X113 GND sky130_fd_sc_hd__dfrbp_1_0[17]/D a_38115_47# GND sky130_fd_pr__nfet_01v8 ad=0p pd=0u as=0p ps=0u w=420000u l=150000u
X114 a_28051_47# a_27535_47# a_27956_47# GND sky130_fd_pr__nfet_01v8 ad=0p pd=0u as=0p ps=0u w=360000u l=150000u
X115 a_3399_21# a_3224_47# a_3578_47# GND sky130_fd_pr__nfet_01v8 ad=0p pd=0u as=0p ps=0u w=420000u l=150000u
X116 sky130_fd_sc_hd__dfrbp_1_0[9]/VPB.t41 a_7109_289# a_6999_413# sky130_fd_sc_hd__dfrbp_1_0[9]/VPB sky130_fd_pr__pfet_01v8_hvt ad=0p pd=0u as=0p ps=0u w=420000u l=150000u
X117 sky130_fd_sc_hd__dfrbp_1_0[9]/VPB.t53 a_17689_289# a_17579_413# sky130_fd_sc_hd__dfrbp_1_0[9]/VPB sky130_fd_pr__pfet_01v8_hvt ad=0p pd=0u as=0p ps=0u w=420000u l=150000u
X118 sky130_fd_sc_hd__dfrbp_1_0[9]/VPB.t55 sky130_fd_sc_hd__dfrbp_1_0[17]/D a_38115_47# sky130_fd_sc_hd__dfrbp_1_0[9]/VPB sky130_fd_pr__pfet_01v8_hvt ad=0p pd=0u as=0p ps=0u w=640000u l=150000u
X119 sky130_fd_sc_hd__dfrbp_1_0[9]/VPB.t2 a_38849_289# a_38739_413# sky130_fd_sc_hd__dfrbp_1_0[9]/VPB sky130_fd_pr__pfet_01v8_hvt ad=0p pd=0u as=0p ps=0u w=420000u l=150000u
X120 a_2755_47# a_2309_47# a_2659_47# GND sky130_fd_pr__nfet_01v8 ad=0p pd=0u as=0p ps=0u w=360000u l=150000u
X121 a_25585_47# a_25419_47# GND GND sky130_fd_pr__nfet_01v8 ad=0p pd=0u as=0p ps=0u w=420000u l=150000u
X122 sky130_fd_sc_hd__dfrbp_1_0[0]/D a_1847_47# GND GND sky130_fd_pr__nfet_01v8 ad=0p pd=0u as=0p ps=0u w=650000u l=150000u
X123 GND a_39371_21# a_39935_47# GND sky130_fd_pr__nfet_01v8 ad=0p pd=0u as=0p ps=0u w=420000u l=150000u
X124 sky130_fd_sc_hd__dfrbp_1_0[9]/VPB.t217 sky130_fd_sc_hd__dfrbp_1_0[0]/CLK a_27_47# sky130_fd_sc_hd__dfrbp_1_0[9]/VPB sky130_fd_pr__pfet_01v8_hvt ad=0p pd=0u as=0p ps=0u w=640000u l=150000u
X125 GND sky130_fd_sc_hd__dfrbp_1_0[9]/RESET_B a_30429_47# GND sky130_fd_pr__nfet_01v8 ad=0p pd=0u as=0p ps=0u w=420000u l=150000u
X126 a_32391_413# a_31767_47# a_32283_47# sky130_fd_sc_hd__dfrbp_1_0[9]/VPB sky130_fd_pr__pfet_01v8_hvt ad=0p pd=0u as=0p ps=0u w=420000u l=150000u
X127 GND a_3399_21# a_3963_47# GND sky130_fd_pr__nfet_01v8 ad=0p pd=0u as=0p ps=0u w=420000u l=150000u
X128 sky130_fd_sc_hd__dfrbp_1_0[2]/Q a_5515_21# GND GND sky130_fd_pr__nfet_01v8 ad=0p pd=0u as=0p ps=0u w=650000u l=150000u
X129 sky130_fd_sc_hd__dfrbp_1_0[8]/D a_18775_47# sky130_fd_sc_hd__dfrbp_1_0[9]/VPB.t124 sky130_fd_sc_hd__dfrbp_1_0[9]/VPB sky130_fd_pr__pfet_01v8_hvt ad=0p pd=0u as=0p ps=0u w=1e+06u l=150000u
X130 a_30275_413# a_29651_47# a_30167_47# sky130_fd_sc_hd__dfrbp_1_0[9]/VPB sky130_fd_pr__pfet_01v8_hvt ad=0p pd=0u as=0p ps=0u w=420000u l=150000u
X131 a_32957_47# a_31767_47# a_32848_47# GND sky130_fd_pr__nfet_01v8 ad=0p pd=0u as=0p ps=0u w=360000u l=150000u
X132 GND a_26675_21# a_27239_47# GND sky130_fd_pr__nfet_01v8 ad=0p pd=0u as=0p ps=0u w=420000u l=150000u
X133 a_2309_47# a_2143_47# GND GND sky130_fd_pr__nfet_01v8 ad=0p pd=0u as=0p ps=0u w=420000u l=150000u
X134 sky130_fd_sc_hd__dfrbp_1_0[7]/D a_16659_47# sky130_fd_sc_hd__dfrbp_1_0[9]/VPB.t40 sky130_fd_sc_hd__dfrbp_1_0[9]/VPB sky130_fd_pr__pfet_01v8_hvt ad=0p pd=0u as=0p ps=0u w=1e+06u l=150000u
X135 a_36623_413# a_35999_47# a_36515_47# sky130_fd_sc_hd__dfrbp_1_0[9]/VPB sky130_fd_pr__pfet_01v8_hvt ad=0p pd=0u as=0p ps=0u w=420000u l=150000u
X136 GND a_13979_21# a_13913_47# GND sky130_fd_pr__nfet_01v8 ad=0p pd=0u as=0p ps=0u w=420000u l=150000u
X137 a_11797_47# a_10607_47# a_11688_47# GND sky130_fd_pr__nfet_01v8 ad=0p pd=0u as=0p ps=0u w=360000u l=150000u
X138 a_37189_47# a_35999_47# a_37080_47# GND sky130_fd_pr__nfet_01v8 ad=0p pd=0u as=0p ps=0u w=360000u l=150000u
X139 a_34507_413# a_33883_47# a_34399_47# sky130_fd_sc_hd__dfrbp_1_0[9]/VPB sky130_fd_pr__pfet_01v8_hvt ad=0p pd=0u as=0p ps=0u w=420000u l=150000u
X140 GND a_22443_21# a_22377_47# GND sky130_fd_pr__nfet_01v8 ad=0p pd=0u as=0p ps=0u w=420000u l=150000u
X141 a_9115_413# a_8491_47# a_9007_47# sky130_fd_sc_hd__dfrbp_1_0[9]/VPB sky130_fd_pr__pfet_01v8_hvt ad=0p pd=0u as=0p ps=0u w=420000u l=150000u
X142 a_13457_289# a_13239_47# sky130_fd_sc_hd__dfrbp_1_0[9]/VPB.t39 sky130_fd_sc_hd__dfrbp_1_0[9]/VPB sky130_fd_pr__pfet_01v8_hvt ad=0p pd=0u as=0p ps=0u w=840000u l=150000u
X143 a_34617_289# a_34399_47# sky130_fd_sc_hd__dfrbp_1_0[9]/VPB.t111 sky130_fd_sc_hd__dfrbp_1_0[9]/VPB sky130_fd_pr__pfet_01v8_hvt ad=0p pd=0u as=0p ps=0u w=840000u l=150000u
X144 a_20261_47# a_19071_47# a_20152_47# GND sky130_fd_pr__nfet_01v8 ad=0p pd=0u as=0p ps=0u w=360000u l=150000u
X145 a_11341_289# a_11123_47# sky130_fd_sc_hd__dfrbp_1_0[9]/VPB.t126 sky130_fd_sc_hd__dfrbp_1_0[9]/VPB sky130_fd_pr__pfet_01v8_hvt ad=0p pd=0u as=0p ps=0u w=840000u l=150000u
X146 a_41666_47# sky130_fd_sc_hd__dfrbp_1_0[9]/RESET_B GND GND sky130_fd_pr__nfet_01v8 ad=0p pd=0u as=0p ps=0u w=420000u l=150000u
X147 a_7109_289# a_6891_47# sky130_fd_sc_hd__dfrbp_1_0[9]/VPB.t86 sky130_fd_sc_hd__dfrbp_1_0[9]/VPB sky130_fd_pr__pfet_01v8_hvt ad=0p pd=0u as=0p ps=0u w=840000u l=150000u
X148 a_32848_47# a_31933_47# a_32501_289# GND sky130_fd_pr__nfet_01v8 ad=0p pd=0u as=0p ps=0u w=360000u l=150000u
X149 a_24037_289# a_23819_47# GND GND sky130_fd_pr__nfet_01v8 ad=0p pd=0u as=0p ps=0u w=640000u l=150000u
X150 a_17689_289# a_17471_47# sky130_fd_sc_hd__dfrbp_1_0[9]/VPB.t197 sky130_fd_sc_hd__dfrbp_1_0[9]/VPB sky130_fd_pr__pfet_01v8_hvt ad=0p pd=0u as=0p ps=0u w=840000u l=150000u
X151 a_20506_47# sky130_fd_sc_hd__dfrbp_1_0[9]/RESET_B GND GND sky130_fd_pr__nfet_01v8 ad=0p pd=0u as=0p ps=0u w=420000u l=150000u
X152 sky130_fd_sc_hd__dfrbp_1_0[9]/VPB.t81 a_24559_21# a_24546_413# sky130_fd_sc_hd__dfrbp_1_0[9]/VPB sky130_fd_pr__pfet_01v8_hvt ad=0p pd=0u as=0p ps=0u w=420000u l=150000u
X153 a_11688_47# a_10773_47# a_11341_289# GND sky130_fd_pr__nfet_01v8 ad=0p pd=0u as=0p ps=0u w=360000u l=150000u
X154 a_15573_289# a_15355_47# sky130_fd_sc_hd__dfrbp_1_0[9]/VPB.t0 sky130_fd_sc_hd__dfrbp_1_0[9]/VPB sky130_fd_pr__pfet_01v8_hvt ad=0p pd=0u as=0p ps=0u w=840000u l=150000u
X155 a_41421_47# a_40231_47# a_41312_47# GND sky130_fd_pr__nfet_01v8 ad=0p pd=0u as=0p ps=0u w=360000u l=150000u
X156 a_28970_47# sky130_fd_sc_hd__dfrbp_1_0[9]/RESET_B GND GND sky130_fd_pr__nfet_01v8 ad=0p pd=0u as=0p ps=0u w=420000u l=150000u
X157 a_25840_47# sky130_fd_sc_hd__dfrbp_1_0[12]/D sky130_fd_sc_hd__dfrbp_1_0[9]/VPB.t52 sky130_fd_sc_hd__dfrbp_1_0[9]/VPB sky130_fd_pr__pfet_01v8_hvt ad=0p pd=0u as=0p ps=0u w=420000u l=150000u
X158 GND a_7631_21# a_7565_47# GND sky130_fd_pr__nfet_01v8 ad=0p pd=0u as=0p ps=0u w=420000u l=150000u
X159 a_25935_47# a_25419_47# a_25840_47# GND sky130_fd_pr__nfet_01v8 ad=0p pd=0u as=0p ps=0u w=360000u l=150000u
X160 a_448_47# sky130_fd_sc_hd__dfrbp_1_0[0]/D sky130_fd_sc_hd__dfrbp_1_0[9]/VPB.t130 sky130_fd_sc_hd__dfrbp_1_0[9]/VPB sky130_fd_pr__pfet_01v8_hvt ad=0p pd=0u as=0p ps=0u w=420000u l=150000u
X161 GND sky130_fd_sc_hd__dfrbp_1_0[9]/RESET_B a_11385_47# GND sky130_fd_pr__nfet_01v8 ad=0p pd=0u as=0p ps=0u w=420000u l=150000u
X162 a_23724_47# sky130_fd_sc_hd__dfrbp_1_0[11]/D sky130_fd_sc_hd__dfrbp_1_0[9]/VPB.t107 sky130_fd_sc_hd__dfrbp_1_0[9]/VPB sky130_fd_pr__pfet_01v8_hvt ad=0p pd=0u as=0p ps=0u w=420000u l=150000u
X163 a_23724_47# sky130_fd_sc_hd__dfrbp_1_0[11]/D GND GND sky130_fd_pr__nfet_01v8 ad=0p pd=0u as=0p ps=0u w=420000u l=150000u
X164 a_20152_47# a_19237_47# a_19805_289# GND sky130_fd_pr__nfet_01v8 ad=0p pd=0u as=0p ps=0u w=360000u l=150000u
X165 sky130_fd_sc_hd__dfrbp_1_0[9]/VPB.t69 a_28791_21# a_28778_413# sky130_fd_sc_hd__dfrbp_1_0[9]/VPB sky130_fd_pr__pfet_01v8_hvt ad=0p pd=0u as=0p ps=0u w=420000u l=150000u
X166 a_9225_289# a_9007_47# sky130_fd_sc_hd__dfrbp_1_0[9]/VPB.t44 sky130_fd_sc_hd__dfrbp_1_0[9]/VPB sky130_fd_pr__pfet_01v8_hvt ad=0p pd=0u as=0p ps=0u w=840000u l=150000u
X167 GND a_28791_21# a_29355_47# GND sky130_fd_pr__nfet_01v8 ad=0p pd=0u as=0p ps=0u w=420000u l=150000u
X168 sky130_fd_sc_hd__dfrbp_1_0[16]/D a_35703_47# GND GND sky130_fd_pr__nfet_01v8 ad=0p pd=0u as=0p ps=0u w=650000u l=150000u
X169 sky130_fd_sc_hd__dfrbp_1_0[19]/D a_42051_47# sky130_fd_sc_hd__dfrbp_1_0[9]/VPB.t24 sky130_fd_sc_hd__dfrbp_1_0[9]/VPB sky130_fd_pr__pfet_01v8_hvt ad=0p pd=0u as=0p ps=0u w=1e+06u l=150000u
X170 sky130_fd_sc_hd__dfrbp_1_0[9]/D a_20891_47# sky130_fd_sc_hd__dfrbp_1_0[9]/VPB.t17 sky130_fd_sc_hd__dfrbp_1_0[9]/VPB sky130_fd_pr__pfet_01v8_hvt ad=0p pd=0u as=0p ps=0u w=1e+06u l=150000u
X171 a_16095_21# a_15920_47# a_16274_47# GND sky130_fd_pr__nfet_01v8 ad=0p pd=0u as=0p ps=0u w=420000u l=150000u
X172 a_9225_289# a_9007_47# GND GND sky130_fd_pr__nfet_01v8 ad=0p pd=0u as=0p ps=0u w=640000u l=150000u
X173 sky130_fd_sc_hd__dfrbp_1_0[2]/Q a_5515_21# sky130_fd_sc_hd__dfrbp_1_0[9]/VPB.t235 sky130_fd_sc_hd__dfrbp_1_0[9]/VPB sky130_fd_pr__pfet_01v8_hvt ad=0p pd=0u as=0p ps=0u w=1e+06u l=150000u
X174 sky130_fd_sc_hd__dfrbp_1_0[9]/VPB.t28 a_26675_21# a_26662_413# sky130_fd_sc_hd__dfrbp_1_0[9]/VPB sky130_fd_pr__pfet_01v8_hvt ad=0p pd=0u as=0p ps=0u w=420000u l=150000u
X175 a_5694_47# sky130_fd_sc_hd__dfrbp_1_0[9]/RESET_B GND GND sky130_fd_pr__nfet_01v8 ad=0p pd=0u as=0p ps=0u w=420000u l=150000u
X176 sky130_fd_sc_hd__dfrbp_1_0[6]/D a_14543_47# GND GND sky130_fd_pr__nfet_01v8 ad=0p pd=0u as=0p ps=0u w=650000u l=150000u
X177 a_15451_47# a_15005_47# a_15355_47# GND sky130_fd_pr__nfet_01v8 ad=0p pd=0u as=0p ps=0u w=360000u l=150000u
X178 a_31933_47# a_31767_47# GND GND sky130_fd_pr__nfet_01v8 ad=0p pd=0u as=0p ps=0u w=420000u l=150000u
X179 sky130_fd_sc_hd__dfrbp_1_0[14]/Q a_30907_21# GND GND sky130_fd_pr__nfet_01v8 ad=0p pd=0u as=0p ps=0u w=650000u l=150000u
X180 a_27956_47# sky130_fd_sc_hd__dfrbp_1_0[13]/D sky130_fd_sc_hd__dfrbp_1_0[9]/VPB.t100 sky130_fd_sc_hd__dfrbp_1_0[9]/VPB sky130_fd_pr__pfet_01v8_hvt ad=0p pd=0u as=0p ps=0u w=420000u l=150000u
X181 a_7153_47# a_7109_289# a_6987_47# GND sky130_fd_pr__nfet_01v8 ad=0p pd=0u as=0p ps=0u w=420000u l=150000u
X182 GND sky130_fd_sc_hd__dfrbp_1_0[10]/D a_23303_47# GND sky130_fd_pr__nfet_01v8 ad=0p pd=0u as=0p ps=0u w=420000u l=150000u
X183 a_2659_47# a_2143_47# a_2564_47# GND sky130_fd_pr__nfet_01v8 ad=0p pd=0u as=0p ps=0u w=360000u l=150000u
X184 sky130_fd_sc_hd__dfrbp_1_0[9]/VPB.t139 a_16095_21# a_16659_47# sky130_fd_sc_hd__dfrbp_1_0[9]/VPB sky130_fd_pr__pfet_01v8_hvt ad=0p pd=0u as=0p ps=0u w=640000u l=150000u
X185 sky130_fd_sc_hd__dfrbp_1_0[11]/D a_25123_47# sky130_fd_sc_hd__dfrbp_1_0[9]/VPB.t206 sky130_fd_sc_hd__dfrbp_1_0[9]/VPB sky130_fd_pr__pfet_01v8_hvt ad=0p pd=0u as=0p ps=0u w=1e+06u l=150000u
X186 a_21703_47# a_21353_47# a_21608_47# sky130_fd_sc_hd__dfrbp_1_0[9]/VPB sky130_fd_pr__pfet_01v8_hvt ad=0p pd=0u as=0p ps=0u w=420000u l=150000u
X187 sky130_fd_sc_hd__dfrbp_1_0[4]/Q a_9747_21# GND GND sky130_fd_pr__nfet_01v8 ad=0p pd=0u as=0p ps=0u w=650000u l=150000u
X188 GND sky130_fd_sc_hd__dfrbp_1_0[9]/RESET_B a_32545_47# GND sky130_fd_pr__nfet_01v8 ad=0p pd=0u as=0p ps=0u w=420000u l=150000u
X189 sky130_fd_sc_hd__dfrbp_1_0[9]/VPB.t98 a_26500_47# a_26675_21# sky130_fd_sc_hd__dfrbp_1_0[9]/VPB sky130_fd_pr__pfet_01v8_hvt ad=0p pd=0u as=0p ps=0u w=420000u l=150000u
X190 a_10773_47# a_10607_47# GND GND sky130_fd_pr__nfet_01v8 ad=0p pd=0u as=0p ps=0u w=420000u l=150000u
X191 a_41312_47# a_40397_47# a_40965_289# GND sky130_fd_pr__nfet_01v8 ad=0p pd=0u as=0p ps=0u w=360000u l=150000u
X192 a_10773_47# a_10607_47# sky130_fd_sc_hd__dfrbp_1_0[9]/VPB.t22 sky130_fd_sc_hd__dfrbp_1_0[9]/VPB sky130_fd_pr__pfet_01v8_hvt ad=0p pd=0u as=0p ps=0u w=640000u l=150000u
X193 a_36165_47# a_35999_47# GND GND sky130_fd_pr__nfet_01v8 ad=0p pd=0u as=0p ps=0u w=420000u l=150000u
X194 a_40747_47# a_40397_47# a_40652_47# sky130_fd_sc_hd__dfrbp_1_0[9]/VPB sky130_fd_pr__pfet_01v8_hvt ad=0p pd=0u as=0p ps=0u w=420000u l=150000u
X195 a_31933_47# a_31767_47# sky130_fd_sc_hd__dfrbp_1_0[9]/VPB.t48 sky130_fd_sc_hd__dfrbp_1_0[9]/VPB sky130_fd_pr__pfet_01v8_hvt ad=0p pd=0u as=0p ps=0u w=640000u l=150000u
X196 a_5340_47# a_4425_47# a_4993_289# GND sky130_fd_pr__nfet_01v8 ad=0p pd=0u as=0p ps=0u w=360000u l=150000u
X197 a_8912_47# sky130_fd_sc_hd__dfrbp_1_0[4]/D GND GND sky130_fd_pr__nfet_01v8 ad=0p pd=0u as=0p ps=0u w=420000u l=150000u